@<TRIPOS>MOLECULE
hex_1_yne
   16    15     1     0     0
SMALL
bcc


@<TRIPOS>ATOM
      1 C2           3.2170     3.6500    -3.2580 c1         1 MOL      -0.138100
      2 C3           1.3910    -0.4450    -1.0600 c3         1 MOL      -0.093100
      3 C4           2.1450     3.1120    -2.4090 c3         1 MOL      -0.004300
      4 C5           1.2140     1.0470    -1.2940 c3         1 MOL      -0.081400
      5 C6           2.3260     1.6120    -2.1760 c3         1 MOL      -0.076400
      6 H1           4.8680     4.4850    -4.5660 ha         1 MOL       0.163500
      7 C1           4.0920     4.0930    -3.9510 c1         1 MOL      -0.162500
      8 H2           0.5840    -0.8280    -0.4270 hc         1 MOL       0.033700
      9 H3           2.3420    -0.6530    -0.5610 hc         1 MOL       0.033700
     10 H4           1.3710    -0.9950    -2.0060 hc         1 MOL       0.033700
     11 H5           2.1400     3.6390    -1.4480 hc         1 MOL       0.058700
     12 H6           1.1750     3.3000    -2.8840 hc         1 MOL       0.058700
     13 H7           0.2390     1.2240    -1.7640 hc         1 MOL       0.038700
     14 H8           1.2060     1.5640    -0.3270 hc         1 MOL       0.038700
     15 H9           3.3000     1.4250    -1.7060 hc         1 MOL       0.047700
     16 H10          2.3360     1.0850    -3.1390 hc         1 MOL       0.047700
@<TRIPOS>BOND
     1     7     1 3   
     2     7     6 1   
     3     1     3 1   
     4     2     4 1   
     5     2     8 1   
     6     2     9 1   
     7     2    10 1   
     8     3     5 1   
     9     3    11 1   
    10     3    12 1   
    11     4     5 1   
    12     4    13 1   
    13     4    14 1   
    14     5    15 1   
    15     5    16 1   
@<TRIPOS>SUBSTRUCTURE
     1 MOL         1 TEMP              0 ****  ****    0 ROOT
