@<TRIPOS>MOLECULE
4_cyanophenol
   14    14     1     0     0
SMALL
bcc


@<TRIPOS>ATOM
      1 C1           1.9050    -1.0680    -1.5330 cg         1 MOL       0.237800
      2 C2           0.8180    -0.4390     0.5640 ca         1 MOL      -0.053500
      3 C3           2.9370    -1.5970     0.6200 ca         1 MOL      -0.053500
      4 C4           0.7990    -0.4060     1.9590 ca         1 MOL      -0.193000
      5 C5           2.9180    -1.5650     2.0140 ca         1 MOL      -0.193000
      6 C6           1.8870    -1.0340    -0.1050 ca         1 MOL      -0.058000
      7 C7           1.8500    -0.9690     2.6840 ca         1 MOL       0.149100
      8 N1           1.9200    -1.0960    -2.6950 n1         1 MOL      -0.367800
      9 O1           1.8310    -0.9370     4.0440 oh         1 MOL      -0.490100
     10 H1          -0.0080     0.0060     0.0140 ha         1 MOL       0.148000
     11 H2           3.7780    -2.0640     0.1120 ha         1 MOL       0.148000
     12 H3          -0.0350     0.0600     2.4750 ha         1 MOL       0.150500
     13 H4           3.7400    -2.0050     2.5730 ha         1 MOL       0.150500
     14 H5           1.1750    -0.2770     4.3350 ho         1 MOL       0.425000
@<TRIPOS>BOND
     1     1     6 1   
     2     1     8 3   
     3     2     4 ar  
     4     2     6 ar  
     5     3     5 ar  
     6     3     6 ar  
     7     4     7 ar  
     8     5     7 ar  
     9     7     9 1   
    10     2    10 1   
    11     3    11 1   
    12     4    12 1   
    13     5    13 1   
    14     9    14 1   
@<TRIPOS>SUBSTRUCTURE
     1 MOL         1 TEMP              0 ****  ****    0 ROOT
