@<TRIPOS>MOLECULE
4_nitrophenol
   15    15     1     0     0
SMALL
bcc


@<TRIPOS>ATOM
      1 C1           0.8180    -0.4390     0.5640 ca         1 MOL      -0.028000
      2 C2           2.9370    -1.5970     0.6200 ca         1 MOL      -0.028000
      3 C3           0.7990    -0.4060     1.9590 ca         1 MOL      -0.199500
      4 C4           2.9180    -1.5650     2.0140 ca         1 MOL      -0.199500
      5 C5           1.8870    -1.0340    -0.1050 ca         1 MOL      -0.219200
      6 C6           1.8500    -0.9690     2.6840 ca         1 MOL       0.170100
      7 N1           1.9040    -1.0690    -1.5250 no         1 MOL       0.319200
      8 O1           0.9480    -0.5590    -2.1570 o          1 MOL      -0.212000
      9 O2           2.8750    -1.6100    -2.1070 o          1 MOL      -0.212000
     10 O3           1.8320    -0.9360     4.0440 oh         1 MOL      -0.483100
     11 H1          -0.0070     0.0030     0.0120 ha         1 MOL       0.173500
     12 H2           3.7760    -2.0650     0.1100 ha         1 MOL       0.173500
     13 H3          -0.0350     0.0600     2.4750 ha         1 MOL       0.158000
     14 H4           3.7400    -2.0040     2.5730 ha         1 MOL       0.158000
     15 H5           1.1760    -0.2770     4.3350 ho         1 MOL       0.430000
@<TRIPOS>BOND
     1     1     3 ar  
     2     1     5 ar  
     3     2     4 ar  
     4     2     5 ar  
     5     3     6 ar  
     6     4     6 ar  
     7     5     7 1   
     8     6    10 1   
     9     7     8 1   
    10     7     9 1   
    11     1    11 1   
    12     2    12 1   
    13     3    13 1   
    14     4    14 1   
    15    10    15 1   
@<TRIPOS>SUBSTRUCTURE
     1 MOL         1 TEMP              0 ****  ****    0 ROOT
