@<TRIPOS>MOLECULE
cyclohexanone
   17    17     1     0     0
SMALL
bcc


@<TRIPOS>ATOM
      1 C1          -0.6950    -1.9190    -0.6360 c          1 MOL       0.570100
      2 C2          -0.2070    -0.5210    -0.9410 c6         1 MOL      -0.181400
      3 C3          -0.8240    -2.8610    -1.8120 c6         1 MOL      -0.181400
      4 C4           1.0520    -0.5660    -1.7950 c6         1 MOL      -0.072400
      5 C5           0.4490    -2.8550    -2.6470 c6         1 MOL      -0.072400
      6 C6           0.8650    -1.4380    -3.0350 c6         1 MOL      -0.083400
      7 O1          -1.0680    -2.2410     0.4910 o          1 MOL      -0.533100
      8 H1          -1.0110     0.0140    -1.4580 hc         1 MOL       0.068700
      9 H2           0.0000     0.0000    -0.0000 hc         1 MOL       0.068700
     10 H3          -1.0220    -3.8730    -1.4420 hc         1 MOL       0.068700
     11 H4          -1.6850    -2.5420    -2.4090 hc         1 MOL       0.068700
     12 H5           1.3300     0.4510    -2.0960 hc         1 MOL       0.047200
     13 H6           1.8830    -0.9630    -1.2000 hc         1 MOL       0.047200
     14 H7           1.2610    -3.3250    -2.0780 hc         1 MOL       0.047200
     15 H8           0.2990    -3.4570    -3.5500 hc         1 MOL       0.047200
     16 H9           0.1050    -0.9940    -3.6900 hc         1 MOL       0.044200
     17 H10          1.8000    -1.4720    -3.6040 hc         1 MOL       0.044200
@<TRIPOS>BOND
     1     1     2 1   
     2     1     3 1   
     3     1     7 2   
     4     2     4 1   
     5     3     5 1   
     6     4     6 1   
     7     5     6 1   
     8     2     8 1   
     9     2     9 1   
    10     3    10 1   
    11     3    11 1   
    12     4    12 1   
    13     4    13 1   
    14     5    14 1   
    15     5    15 1   
    16     6    16 1   
    17     6    17 1   
@<TRIPOS>SUBSTRUCTURE
     1 MOL         1 TEMP              0 ****  ****    0 ROOT
