@<TRIPOS>MOLECULE
1,3,5-trichloro-2-(2,6-dichlorophenyl)benzene
   22    23     1     0     0
SMALL
bcc


@<TRIPOS>ATOM
      1 C1           1.8850    -1.0360    -0.1120 ca         1 MOL      -0.104000
      2 C2           0.8070    -0.4630     0.5610 ca         1 MOL      -0.129000
      3 C3           2.9210    -1.6310     0.6080 ca         1 MOL      -0.129000
      4 C4           1.1070    -2.1900     6.1870 ca         1 MOL      -0.127000
      5 C5           2.2720    -0.0750     6.2550 ca         1 MOL      -0.127000
      6 C6           1.8000    -1.0790     2.6760 cp         1 MOL      -0.037000
      7 C7           1.7550    -1.1010     4.1300 cp         1 MOL      -0.032000
      8 C8           0.7640    -0.4840     1.9550 ca         1 MOL       0.049400
      9 C9           2.8780    -1.6520     2.0020 ca         1 MOL       0.049400
     10 C10          1.6670    -1.1430     6.9180 ca         1 MOL       0.038400
     11 C11          1.1500    -2.1690     4.7930 ca         1 MOL       0.055400
     12 C12          2.3160    -0.0540     4.8610 ca         1 MOL       0.055400
     13 Cl1         -0.6020     0.2450     2.7290 cl         1 MOL      -0.072400
     14 Cl2          4.1950    -2.4050     2.8370 cl         1 MOL      -0.072400
     15 Cl3          1.6120    -1.1680     8.6380 cl         1 MOL      -0.073400
     16 Cl4          0.4360    -3.4980     3.9440 cl         1 MOL      -0.064400
     17 Cl5          3.0780     1.3010     4.0990 cl         1 MOL      -0.064400
     18 H1           1.9180    -1.0200    -1.1980 ha         1 MOL       0.144000
     19 H2           0.0080    -0.0040    -0.0170 ha         1 MOL       0.153000
     20 H3           3.7540    -2.0730     0.0670 ha         1 MOL       0.153000
     21 H4           0.6360    -3.0220     6.7070 ha         1 MOL       0.167000
     22 H5           2.7070     0.7420     6.8290 ha         1 MOL       0.167000
@<TRIPOS>BOND
     1     1     2 ar  
     2     1     3 ar  
     3     2     8 ar  
     4     3     9 ar  
     5     4    10 ar  
     6     4    11 ar  
     7     5    10 ar  
     8     5    12 ar  
     9     6     7 1   
    10     6     8 ar  
    11     6     9 ar  
    12     7    11 ar  
    13     7    12 ar  
    14     8    13 1   
    15     9    14 1   
    16    10    15 1   
    17    11    16 1   
    18    12    17 1   
    19     1    18 1   
    20     2    19 1   
    21     3    20 1   
    22     4    21 1   
    23     5    22 1   
@<TRIPOS>SUBSTRUCTURE
     1 MOL         1 TEMP              0 ****  ****    0 ROOT
