@<TRIPOS>MOLECULE
12_diethoxyethane
   22    21     1     0     0
SMALL
bcc


@<TRIPOS>ATOM
      1 C1           0.3020     0.5420     3.9170 c3         1 MOL      -0.097100
      2 C2          -3.1660    -3.7250    -0.0470 c3         1 MOL      -0.097100
      3 C3           0.3150     0.8020     2.4260 c3         1 MOL       0.132400
      4 C4          -3.2680    -2.2460    -0.3500 c3         1 MOL       0.132400
      5 C5          -0.8940     0.4510     0.4420 c3         1 MOL       0.128400
      6 C6          -2.1460    -0.1940    -0.1210 c3         1 MOL       0.128400
      7 O1          -0.8530     0.2360     1.8470 os         1 MOL      -0.428600
      8 O2          -2.1050    -1.5920     0.1370 os         1 MOL      -0.428600
      9 H1           1.1900     0.9650     4.3950 hc         1 MOL       0.045033
     10 H2          -0.5900     0.9800     4.3780 hc         1 MOL       0.045033
     11 H3           0.2690    -0.5340     4.1210 hc         1 MOL       0.045033
     12 H4          -4.0480    -4.2600    -0.4090 hc         1 MOL       0.045033
     13 H5          -2.2750    -4.1550    -0.5160 hc         1 MOL       0.045033
     14 H6          -3.0700    -3.8920     1.0310 hc         1 MOL       0.045033
     15 H7           1.1950     0.3430     1.9650 h1         1 MOL       0.025700
     16 H8           0.3240     1.8770     2.2240 h1         1 MOL       0.025700
     17 H9          -4.1460    -1.8130     0.1390 h1         1 MOL       0.025700
     18 H10         -3.3400    -2.0790    -1.4290 h1         1 MOL       0.025700
     19 H11         -0.8900     1.5300     0.2610 h1         1 MOL       0.038700
     20 H12          0.0000     0.0000     0.0000 h1         1 MOL       0.038700
     21 H13         -2.2120    -0.0490    -1.2040 h1         1 MOL       0.038700
     22 H14         -3.0380     0.2180     0.3610 h1         1 MOL       0.038700
@<TRIPOS>BOND
     1     1     3 1   
     2     2     4 1   
     3     3     7 1   
     4     4     8 1   
     5     5     6 1   
     6     5     7 1   
     7     6     8 1   
     8     1     9 1   
     9     1    10 1   
    10     1    11 1   
    11     2    12 1   
    12     2    13 1   
    13     2    14 1   
    14     3    15 1   
    15     3    16 1   
    16     4    17 1   
    17     4    18 1   
    18     5    19 1   
    19     5    20 1   
    20     6    21 1   
    21     6    22 1   
@<TRIPOS>SUBSTRUCTURE
     1 MOL         1 TEMP              0 ****  ****    0 ROOT
