@<TRIPOS>MOLECULE
iodobenzene
   12    12     1     0     0
SMALL
bcc


@<TRIPOS>ATOM
      1 C1           1.8850    -1.0380    -0.1090 ca         1 MOL      -0.112000
      2 C2           0.8180    -0.4410     0.5630 ca         1 MOL      -0.134000
      3 C3           2.9350    -1.6040     0.6140 ca         1 MOL      -0.134000
      4 C4           0.8010    -0.4100     1.9570 ca         1 MOL      -0.096000
      5 C5           2.9180    -1.5730     2.0080 ca         1 MOL      -0.096000
      6 C6           1.8510    -0.9770     2.6800 ca         1 MOL       0.022900
      7 I1           1.8260    -0.9310     4.7570 i          1 MOL      -0.145900
      8 H1           1.8980    -1.0610    -1.1950 ha         1 MOL       0.135000
      9 H2           0.0000    -0.0000    -0.0000 ha         1 MOL       0.137000
     10 H3           3.7660    -2.0680     0.0900 ha         1 MOL       0.137000
     11 H4          -0.0400     0.0590     2.4610 ha         1 MOL       0.144000
     12 H5           3.7460    -2.0200     2.5530 ha         1 MOL       0.144000
@<TRIPOS>BOND
     1     1     2 ar  
     2     1     3 ar  
     3     2     4 ar  
     4     3     5 ar  
     5     4     6 ar  
     6     5     6 ar  
     7     6     7 1   
     8     1     8 1   
     9     2     9 1   
    10     3    10 1   
    11     4    11 1   
    12     5    12 1   
@<TRIPOS>SUBSTRUCTURE
     1 MOL         1 TEMP              0 ****  ****    0 ROOT
