@<TRIPOS>MOLECULE
methyl
   19    19     1     0     0
SMALL
bcc


@<TRIPOS>ATOM
      1 C1           1.8850    -1.0360    -0.1120 ca         1 MOL      -0.033500
      2 C2           2.8780    -1.6520     2.0020 ca         1 MOL      -0.033500
      3 C3           0.8070    -0.4630     0.5610 ca         1 MOL      -0.205000
      4 C4           1.8000    -1.0790     2.6760 ca         1 MOL      -0.205000
      5 C5           2.9210    -1.6310     0.6080 ca         1 MOL      -0.173600
      6 C6           0.7640    -0.4840     1.9550 ca         1 MOL       0.159100
      7 C7           4.0460    -2.2280    -0.0940 c          1 MOL       0.649700
      8 C8           6.1160    -3.3760     0.2050 c3         1 MOL       0.128700
      9 O1           4.1680    -2.2560    -1.3250 o          1 MOL      -0.547000
     10 O2          -0.2890     0.0740     2.6120 oh         1 MOL      -0.490100
     11 O3           4.9580    -2.7580     0.7770 os         1 MOL      -0.442900
     12 H1           1.9090    -1.0150    -1.1990 ha         1 MOL       0.159000
     13 H2           3.6800    -2.1130     2.5730 ha         1 MOL       0.159000
     14 H3           0.0030    -0.0010    -0.0060 ha         1 MOL       0.149000
     15 H4           1.7710    -1.0990     3.7620 ha         1 MOL       0.149000
     16 H5           6.7590    -3.7560     1.0030 h1         1 MOL       0.051367
     17 H6           6.6590    -2.6450    -0.3990 h1         1 MOL       0.051367
     18 H7           5.7980    -4.2070    -0.4300 h1         1 MOL       0.051367
     19 H8          -0.1750    -0.0190     3.5710 ho         1 MOL       0.425000
@<TRIPOS>BOND
     1     1     3 ar  
     2     1     5 ar  
     3     2     4 ar  
     4     2     5 ar  
     5     3     6 ar  
     6     4     6 ar  
     7     5     7 1   
     8     6    10 1   
     9     7     9 2   
    10     7    11 1   
    11     8    11 1   
    12     1    12 1   
    13     2    13 1   
    14     3    14 1   
    15     4    15 1   
    16     8    16 1   
    17     8    17 1   
    18     8    18 1   
    19    10    19 1   
@<TRIPOS>SUBSTRUCTURE
     1 MOL         1 TEMP              0 ****  ****    0 ROOT
