@<TRIPOS>MOLECULE
2_ethylpyridine
   17    17     1     0     0
SMALL
bcc


@<TRIPOS>ATOM
      1 C1           1.2860    -0.0600     1.7330 ca         1 MOL      -0.091000
      2 C2           0.1840    -0.4390     0.9740 ca         1 MOL      -0.252300
      3 C3           1.4970    -0.6400     2.9790 ca         1 MOL      -0.247300
      4 C4          -0.6700    -1.3940     1.5010 ca         1 MOL       0.398200
      5 C5           0.5840    -1.5860     3.4170 ca         1 MOL       0.411600
      6 C6           1.6230    -3.4980     4.6630 c3         1 MOL      -0.089100
      7 C7           0.7790    -2.2280     4.7500 c3         1 MOL      -0.129700
      8 N1          -0.4980    -1.9790     2.7080 nb         1 MOL      -0.666000
      9 H1           1.9790     0.6850     1.3540 ha         1 MOL       0.136000
     10 H2           0.0000    -0.0010    -0.0000 ha         1 MOL       0.142000
     11 H3           2.3530    -0.3530     3.5810 ha         1 MOL       0.141000
     12 H4          -1.5430    -1.7240     0.9480 h4         1 MOL       0.020100
     13 H5           1.1490    -4.2410     4.0130 hc         1 MOL       0.040033
     14 H6           1.7500    -3.9460     5.6540 hc         1 MOL       0.040033
     15 H7           2.6170    -3.2820     4.2580 hc         1 MOL       0.040033
     16 H8           1.2590    -1.5240     5.4480 hc         1 MOL       0.052700
     17 H9          -0.1940    -2.4720     5.2040 hc         1 MOL       0.052700
@<TRIPOS>BOND
     1     1     2 ar  
     2     1     3 ar  
     3     2     4 ar  
     4     3     5 ar  
     5     4     8 ar  
     6     5     7 1   
     7     5     8 ar  
     8     6     7 1   
     9     1     9 1   
    10     2    10 1   
    11     3    11 1   
    12     4    12 1   
    13     6    13 1   
    14     6    14 1   
    15     6    15 1   
    16     7    16 1   
    17     7    17 1   
@<TRIPOS>SUBSTRUCTURE
     1 MOL         1 TEMP              0 ****  ****    0 ROOT
