@<TRIPOS>MOLECULE
thiophenol
   13    13     1     0     0
SMALL
bcc


@<TRIPOS>ATOM
      1 C1           1.8850    -1.0380    -0.1090 ca         1 MOL      -0.137000
      2 C2           0.8180    -0.4410     0.5630 ca         1 MOL      -0.113000
      3 C3           2.9350    -1.6040     0.6140 ca         1 MOL      -0.113000
      4 C4           0.8010    -0.4100     1.9570 ca         1 MOL      -0.132000
      5 C5           2.9180    -1.5730     2.0080 ca         1 MOL      -0.132000
      6 C6           1.8510    -0.9770     2.6800 ca         1 MOL       0.015900
      7 S1           1.8290    -0.9380     4.4620 sh         1 MOL      -0.254700
      8 H1           1.8980    -1.0620    -1.1950 ha         1 MOL       0.134000
      9 H2           0.0010     0.0000    -0.0010 ha         1 MOL       0.133500
     10 H3           3.7650    -2.0680     0.0900 ha         1 MOL       0.133500
     11 H4          -0.0390     0.0590     2.4630 ha         1 MOL       0.136500
     12 H5           3.7450    -2.0200     2.5540 ha         1 MOL       0.136500
     13 H6           0.6760    -0.2680     4.6040 hs         1 MOL       0.190800
@<TRIPOS>BOND
     1     1     2 ar  
     2     1     3 ar  
     3     2     4 ar  
     4     3     5 ar  
     5     4     6 ar  
     6     5     6 ar  
     7     6     7 1   
     8     1     8 1   
     9     2     9 1   
    10     3    10 1   
    11     4    11 1   
    12     5    12 1   
    13     7    13 1   
@<TRIPOS>SUBSTRUCTURE
     1 MOL         1 TEMP              0 ****  ****    0 ROOT
