@<TRIPOS>MOLECULE
2_nitrophenol
   15    15     1     0     0
SMALL
bcc


@<TRIPOS>ATOM
      1 C1           1.8850    -1.0380    -0.1090 ca         1 MOL      -0.178000
      2 C2           0.8180    -0.4410     0.5630 ca         1 MOL      -0.047000
      3 C3           2.9350    -1.6040     0.6140 ca         1 MOL      -0.034000
      4 C4           0.8010    -0.4100     1.9570 ca         1 MOL      -0.232000
      5 C5           2.9180    -1.5730     2.0080 ca         1 MOL      -0.217200
      6 C6           1.8510    -0.9770     2.6800 ca         1 MOL       0.194100
      7 N1           3.9970    -2.1550     2.7290 no         1 MOL       0.324200
      8 O1           4.9390    -2.6820     2.0900 o          1 MOL      -0.203500
      9 O2           3.9750    -2.1240     3.9820 o          1 MOL      -0.203500
     10 O3           1.8120    -0.9350     4.0420 oh         1 MOL      -0.450100
     11 H1           1.8980    -1.0610    -1.1950 ha         1 MOL       0.150000
     12 H2          -0.0000    -0.0000    -0.0000 ha         1 MOL       0.145000
     13 H3           3.7600    -2.0650     0.0770 ha         1 MOL       0.174000
     14 H4          -0.0330     0.0560     2.4740 ha         1 MOL       0.147000
     15 H5           1.1530    -0.2720     4.3160 ho         1 MOL       0.428000
@<TRIPOS>BOND
     1     1     2 ar  
     2     1     3 ar  
     3     2     4 ar  
     4     3     5 ar  
     5     4     6 ar  
     6     5     6 ar  
     7     5     7 1   
     8     6    10 1   
     9     7     8 1   
    10     7     9 1   
    11     1    11 1   
    12     2    12 1   
    13     3    13 1   
    14     4    14 1   
    15    10    15 1   
@<TRIPOS>SUBSTRUCTURE
     1 MOL         1 TEMP              0 ****  ****    0 ROOT
