@<TRIPOS>MOLECULE
formaldehyde
    4     3     1     0     0
SMALL
bcc


@<TRIPOS>ATOM
      1 C1          -0.4870    -0.0360     0.9870 c          1 MOL       0.562700
      2 O1          -1.0700    -1.0340     1.3930 o          1 MOL      -0.515100
      3 H1          -0.4160     0.8860     1.5860 h4         1 MOL      -0.023800
      4 H2           0.0000     0.0000     0.0000 h4         1 MOL      -0.023800
@<TRIPOS>BOND
     1     1     2 2   
     2     1     3 1   
     3     1     4 1   
@<TRIPOS>SUBSTRUCTURE
     1 MOL         1 TEMP              0 ****  ****    0 ROOT
