@<TRIPOS>MOLECULE
ethyl_phenyl_ether
   19    19     1     0     0
SMALL
bcc


@<TRIPOS>ATOM
      1 C1           1.8850    -1.0380    -0.1090 ca         1 MOL      -0.166000
      2 C2           0.8180    -0.4410     0.5630 ca         1 MOL      -0.097000
      3 C3           2.9350    -1.6040     0.6140 ca         1 MOL      -0.097000
      4 C4           0.8010    -0.4100     1.9570 ca         1 MOL      -0.182000
      5 C5           2.9180    -1.5730     2.0080 ca         1 MOL      -0.182000
      6 C6           1.8510    -0.9770     2.6800 ca         1 MOL       0.128100
      7 C7           1.8190     0.4350     5.9950 c3         1 MOL      -0.100100
      8 C8           1.1680     0.1520     4.6580 c3         1 MOL       0.128400
      9 O1           1.8340    -0.9480     4.0400 os         1 MOL      -0.332900
     10 H1           1.8990    -1.0600    -1.1950 ha         1 MOL       0.132000
     11 H2          -0.0000    -0.0010    -0.0000 ha         1 MOL       0.131500
     12 H3           3.7660    -2.0680     0.0900 ha         1 MOL       0.131500
     13 H4          -0.0340     0.0550     2.4750 ha         1 MOL       0.141500
     14 H5           3.7390    -2.0170     2.5660 ha         1 MOL       0.141500
     15 H6           1.3310     1.2760     6.4970 hc         1 MOL       0.048700
     16 H7           1.7640    -0.4450     6.6450 hc         1 MOL       0.048700
     17 H8           2.8810     0.6690     5.8660 hc         1 MOL       0.048700
     18 H9           1.2440     1.0240     4.0020 h1         1 MOL       0.037700
     19 H10          0.1130    -0.1040     4.7920 h1         1 MOL       0.037700
@<TRIPOS>BOND
     1     1     2 ar  
     2     1     3 ar  
     3     2     4 ar  
     4     3     5 ar  
     5     4     6 ar  
     6     5     6 ar  
     7     6     9 1   
     8     7     8 1   
     9     8     9 1   
    10     1    10 1   
    11     2    11 1   
    12     3    12 1   
    13     4    13 1   
    14     5    14 1   
    15     7    15 1   
    16     7    16 1   
    17     7    17 1   
    18     8    18 1   
    19     8    19 1   
@<TRIPOS>SUBSTRUCTURE
     1 MOL         1 TEMP              0 ****  ****    0 ROOT
