@<TRIPOS>MOLECULE
CUP08034_AM1BCC_v1_0
   24    24     1     0     0
SMALL
bcc


@<TRIPOS>ATOM
      1 C1           1.8910    -1.3160     2.1960 ce         1 MOL      -0.262200
      2 C2           1.0490    -1.5220     1.1710 c2         1 MOL      -0.040400
      3 C3           2.6870    -0.0680     2.2940 c          1 MOL       0.569300
      4 C4           0.8860    -0.5350     0.0400 c6         1 MOL      -0.054200
      5 C5           2.4730     1.0100     1.2540 c6         1 MOL      -0.175400
      6 C6           2.0780     0.4380    -0.1190 c6         1 MOL      -0.044000
      7 C7           0.1980    -2.7570     1.0930 c3         1 MOL      -0.073900
      8 C8           3.2820    -0.2830    -0.7620 c3         1 MOL      -0.090600
      9 C9           1.6640     1.5930    -1.0480 c3         1 MOL      -0.090600
     10 O1           3.4510     0.0840     3.2450 o          1 MOL      -0.538100
     11 H1           2.0190    -2.0220     3.0090 ha         1 MOL       0.149000
     12 H2           0.7420    -1.0790    -0.9030 hc         1 MOL       0.058200
     13 H3          -0.0400     0.0270     0.2210 hc         1 MOL       0.058200
     14 H4           1.6920     1.6780     1.6380 hc         1 MOL       0.072700
     15 H5           3.3980     1.5920     1.1680 hc         1 MOL       0.072700
     16 H6          -0.8620    -2.4850     1.0600 hc         1 MOL       0.050700
     17 H7           0.3460    -3.4150     1.9550 hc         1 MOL       0.050700
     18 H8           0.4390    -3.3290     0.1910 hc         1 MOL       0.050700
     19 H9           4.1270     0.4030    -0.8910 hc         1 MOL       0.039033
     20 H10          3.6330    -1.1270    -0.1600 hc         1 MOL       0.039033
     21 H11          3.0210    -0.6750    -1.7520 hc         1 MOL       0.039033
     22 H12          2.4870     2.3030    -1.1890 hc         1 MOL       0.039033
     23 H13          1.3710     1.2200    -2.0360 hc         1 MOL       0.039033
     24 H14          0.8140     2.1490    -0.6370 hc         1 MOL       0.039033
@<TRIPOS>BOND
     1     1     2 2   
     2     1     3 1   
     3     2     4 1   
     4     2     7 1   
     5     3     5 1   
     6     3    10 2   
     7     4     6 1   
     8     5     6 1   
     9     6     8 1   
    10     6     9 1   
    11     1    11 1   
    12     4    12 1   
    13     4    13 1   
    14     5    14 1   
    15     5    15 1   
    16     7    16 1   
    17     7    17 1   
    18     7    18 1   
    19     8    19 1   
    20     8    20 1   
    21     8    21 1   
    22     9    22 1   
    23     9    23 1   
    24     9    24 1   
@<TRIPOS>SUBSTRUCTURE
     1 MOL         1 TEMP              0 ****  ****    0 ROOT
