@<TRIPOS>MOLECULE
11_dichloroethene
    6     5     1     0     0
SMALL
bcc


@<TRIPOS>ATOM
      1 C1          -0.5470    -0.2640    -0.9000 c2         1 MOL      -0.206000
      2 C2          -0.9360    -1.5190    -1.1380 c2         1 MOL       0.074800
      3 Cl1         -0.5840    -2.7830    -0.0180 cl         1 MOL      -0.076400
      4 Cl2         -1.8050    -1.9210    -2.5720 cl         1 MOL      -0.076400
      5 H1          -0.7630     0.5390    -1.5970 ha         1 MOL       0.142000
      6 H2           0.0000     0.0000     0.0000 ha         1 MOL       0.142000
@<TRIPOS>BOND
     1     1     2 2   
     2     2     3 1   
     3     2     4 1   
     4     1     5 1   
     5     1     6 1   
@<TRIPOS>SUBSTRUCTURE
     1 MOL         1 TEMP              0 ****  ****    0 ROOT
