@<TRIPOS>MOLECULE
n_heptylamine
   25    24     1     0     0
SMALL
bcc


@<TRIPOS>ATOM
      1 C1           0.6450    -0.7070     0.1070 c3         1 MOL      -0.093100
      2 C2           0.1470    -2.0970    -0.2570 c3         1 MOL      -0.080400
      3 C3          -0.2980    -2.1670    -1.7190 c3         1 MOL      -0.079400
      4 C4          -0.8290    -3.5590    -2.0700 c3         1 MOL      -0.079400
      5 C5          -1.3010    -3.6830    -3.5210 c3         1 MOL      -0.075400
      6 C6          -1.7630    -5.0940    -3.8930 c3         1 MOL      -0.122400
      7 C7          -2.2540    -5.1490    -5.3400 c3         1 MOL       0.149800
      8 N1          -2.6810    -6.5010    -5.6790 n8         1 MOL      -0.904800
      9 H1           1.5040    -0.4240    -0.5110 hc         1 MOL       0.032700
     10 H2          -0.1410     0.0410    -0.0340 hc         1 MOL       0.032700
     11 H3           0.9570    -0.6790     1.1550 hc         1 MOL       0.032700
     12 H4           0.9460    -2.8240    -0.0750 hc         1 MOL       0.038700
     13 H5          -0.6900    -2.3620     0.4000 hc         1 MOL       0.038700
     14 H6           0.5470    -1.9200    -2.3720 hc         1 MOL       0.039700
     15 H7          -1.0750    -1.4140    -1.8930 hc         1 MOL       0.039700
     16 H8          -0.0340    -4.2970    -1.9050 hc         1 MOL       0.039700
     17 H9          -1.6500    -3.8240    -1.3920 hc         1 MOL       0.039700
     18 H10         -2.1110    -2.9670    -3.7070 hc         1 MOL       0.041700
     19 H11         -0.4690    -3.3950    -4.1760 hc         1 MOL       0.041700
     20 H12         -0.9330    -5.7990    -3.7550 hc         1 MOL       0.038700
     21 H13         -2.5720    -5.4110    -3.2250 hc         1 MOL       0.038700
     22 H14         -3.0970    -4.4630    -5.4770 h1         1 MOL       0.051700
     23 H15         -1.4560    -4.8380    -6.0230 h1         1 MOL       0.051700
     24 H16         -3.2060    -6.8890    -4.8990 hn         1 MOL       0.343800
     25 H17         -1.8600    -7.0890    -5.7960 hn         1 MOL       0.343800
@<TRIPOS>BOND
     1     1     2 1   
     2     2     3 1   
     3     3     4 1   
     4     4     5 1   
     5     5     6 1   
     6     6     7 1   
     7     7     8 1   
     8     1     9 1   
     9     1    10 1   
    10     1    11 1   
    11     2    12 1   
    12     2    13 1   
    13     3    14 1   
    14     3    15 1   
    15     4    16 1   
    16     4    17 1   
    17     5    18 1   
    18     5    19 1   
    19     6    20 1   
    20     6    21 1   
    21     7    22 1   
    22     7    23 1   
    23     8    24 1   
    24     8    25 1   
@<TRIPOS>SUBSTRUCTURE
     1 MOL         1 TEMP              0 ****  ****    0 ROOT
