@<TRIPOS>MOLECULE
methanol@0
    6     5     1     0     0
SMALL
bcc


@<TRIPOS>ATOM
      1 C1           0.2830     0.7680     0.7240 c3         1 MOL       0.116700
      2 O1          -0.3110     2.0010     0.3620 oh         1 MOL      -0.598800
      3 H1           1.3700     0.8800     0.7460 h1         1 MOL       0.028700
      4 H2          -0.0000    -0.0000     0.0000 h1         1 MOL       0.028700
      5 H3          -0.0720     0.4800     1.7160 h1         1 MOL       0.028700
      6 H4           0.0220     2.2310    -0.5220 ho         1 MOL       0.396000
@<TRIPOS>BOND
     1     1     2 1   
     2     1     3 1   
     3     1     4 1   
     4     1     5 1   
     5     2     6 1   
@<TRIPOS>SUBSTRUCTURE
     1 MOL         1 TEMP              0 ****  ****    0 ROOT
