@<TRIPOS>MOLECULE
pentanal
   16    15     1     0     0
SMALL
bcc


@<TRIPOS>ATOM
      1 C1           3.9380    -4.1330     1.7330 c          1 MOL       0.562900
      2 C2           1.0280    -0.2940     0.2370 c3         1 MOL      -0.092100
      3 C3           2.5430    -3.6680     1.3870 c3         1 MOL      -0.198400
      4 C4           1.0770    -1.7590     0.6390 c3         1 MOL      -0.079400
      5 C5           2.4920    -2.1880     1.0220 c3         1 MOL      -0.075400
      6 O1           4.9390    -3.4260     1.6980 o          1 MOL      -0.524100
      7 H1           4.0120    -5.1920     2.0360 h4         1 MOL      -0.010800
      8 H2           0.0060    -0.0090    -0.0340 hc         1 MOL       0.035033
      9 H3           1.6740    -0.1020    -0.6250 hc         1 MOL       0.035033
     10 H4           1.3530     0.3500     1.0610 hc         1 MOL       0.035033
     11 H5           2.1910    -4.2810     0.5500 hc         1 MOL       0.065700
     12 H6           1.9040    -3.8720     2.2520 hc         1 MOL       0.065700
     13 H7           0.7140    -2.3730    -0.1940 hc         1 MOL       0.036700
     14 H8           0.3960    -1.9240     1.4830 hc         1 MOL       0.036700
     15 H9           2.8440    -1.5870     1.8690 hc         1 MOL       0.054700
     16 H10          3.1770    -1.9890     0.1890 hc         1 MOL       0.054700
@<TRIPOS>BOND
     1     1     3 1   
     2     1     6 2   
     3     2     4 1   
     4     3     5 1   
     5     4     5 1   
     6     1     7 1   
     7     2     8 1   
     8     2     9 1   
     9     2    10 1   
    10     3    11 1   
    11     3    12 1   
    12     4    13 1   
    13     4    14 1   
    14     5    15 1   
    15     5    16 1   
@<TRIPOS>SUBSTRUCTURE
     1 MOL         1 TEMP              0 ****  ****    0 ROOT
