@<TRIPOS>MOLECULE
isobutyl_isobutanoate
   26    25     1     0     0
SMALL
bcc


@<TRIPOS>ATOM
      1 C1           1.4250    -0.3060    -1.6680 c          1 MOL       0.632100
      2 C2           1.3700    -1.9950     0.1580 c3         1 MOL      -0.093100
      3 C3          -0.5630    -0.4170    -0.1460 c3         1 MOL      -0.093100
      4 C4           1.9660    -1.5540    -5.6440 c3         1 MOL      -0.091100
      5 C5           4.1750    -0.3640    -5.6910 c3         1 MOL      -0.091100
      6 C6           2.7460    -0.2390    -3.6300 c3         1 MOL       0.139400
      7 C7           0.5290    -1.2190    -0.8490 c3         1 MOL      -0.107700
      8 C8           3.1730    -1.1110    -4.8140 c3         1 MOL      -0.071700
      9 O1           1.7000     0.8500    -1.3740 o          1 MOL      -0.543000
     10 O2           1.8770    -0.9790    -2.7680 os         1 MOL      -0.442900
     11 H1           0.7450    -2.6680     0.7530 hc         1 MOL       0.047867
     12 H2           1.8930    -1.3190     0.8440 hc         1 MOL       0.047867
     13 H3           2.1300    -2.6000    -0.3480 hc         1 MOL       0.047867
     14 H4          -1.2460    -1.0810     0.3950 hc         1 MOL       0.047867
     15 H5          -1.1520     0.1560    -0.8710 hc         1 MOL       0.047867
     16 H6          -0.1410     0.2930     0.5730 hc         1 MOL       0.047867
     17 H7           2.2840    -2.1790    -6.4860 hc         1 MOL       0.037700
     18 H8           1.4250    -0.6920    -6.0480 hc         1 MOL       0.037700
     19 H9           1.2660    -2.1420    -5.0410 hc         1 MOL       0.037700
     20 H10          4.5090    -0.9940    -6.5230 hc         1 MOL       0.037700
     21 H11          5.0610    -0.0780    -5.1140 hc         1 MOL       0.037700
     22 H12          3.7360     0.5470    -6.1120 hc         1 MOL       0.037700
     23 H13          3.6190     0.0710    -3.0460 h1         1 MOL       0.052700
     24 H14          2.2180     0.6580    -3.9700 h1         1 MOL       0.052700
     25 H15          0.0380    -1.9160    -1.5380 hc         1 MOL       0.079700
     26 H16          3.6540    -2.0170    -4.4240 hc         1 MOL       0.062700
@<TRIPOS>BOND
     1     1     7 1   
     2     1     9 2   
     3     1    10 1   
     4     2     7 1   
     5     3     7 1   
     6     4     8 1   
     7     5     8 1   
     8     6     8 1   
     9     6    10 1   
    10     2    11 1   
    11     2    12 1   
    12     2    13 1   
    13     3    14 1   
    14     3    15 1   
    15     3    16 1   
    16     4    17 1   
    17     4    18 1   
    18     4    19 1   
    19     5    20 1   
    20     5    21 1   
    21     5    22 1   
    22     6    23 1   
    23     6    24 1   
    24     7    25 1   
    25     8    26 1   
@<TRIPOS>SUBSTRUCTURE
     1 MOL         1 TEMP              0 ****  ****    0 ROOT
