@<TRIPOS>MOLECULE
CUP08049_AM1BCC_v1_0
   23    24     1     0     0
SMALL
bcc


@<TRIPOS>ATOM
      1 C1           6.1000     0.8290    -6.6980 ca         1 MOL      -0.126000
      2 C2           4.7780     1.2040    -6.9080 ca         1 MOL      -0.126000
      3 C3           6.4650     0.2750    -5.4790 ca         1 MOL      -0.126000
      4 C4           3.8200     1.0250    -5.8990 ca         1 MOL      -0.111000
      5 C5           5.5060     0.0990    -4.4740 ca         1 MOL      -0.111000
      6 C6           4.1570     0.4680    -4.6560 ca         1 MOL       0.052600
      7 C7           3.0050    -0.4940    -1.4320 cc         1 MOL       0.297500
      8 C8           1.5600    -0.2120    -1.3250 cc         1 MOL       0.136400
      9 C9           1.0310     0.3010    -2.4420 cd         1 MOL      -0.212800
     10 C10          1.8330     0.5770    -3.6760 c          1 MOL       0.706700
     11 N1           3.7650    -0.2760    -2.4490 nd         1 MOL      -0.385300
     12 N2           3.2030     0.2680    -3.5890 n          1 MOL      -0.124000
     13 N3           0.9240    -0.5000    -0.1270 nv         1 MOL      -0.843600
     14 O1           1.2550     1.0490    -4.6550 o          1 MOL      -0.592500
     15 Cl1         -0.6600     0.7010    -2.4940 cl         1 MOL      -0.062400
     16 H1           6.8390     0.9670    -7.4820 ha         1 MOL       0.134000
     17 H2           4.4800     1.6380    -7.8590 ha         1 MOL       0.136500
     18 H3           7.4950    -0.0230    -5.3010 ha         1 MOL       0.136500
     19 H4           2.8110     1.3440    -6.1370 ha         1 MOL       0.150500
     20 H5           5.8400    -0.3400    -3.5360 ha         1 MOL       0.150500
     21 H6           3.4660    -0.9380    -0.5340 h4         1 MOL       0.050800
     22 H7           1.4880    -0.3060     0.6980 hn         1 MOL       0.434800
     23 H8          -0.0010    -0.0710    -0.0640 hn         1 MOL       0.434800
@<TRIPOS>BOND
     1     1     2 ar  
     2     1     3 ar  
     3     2     4 ar  
     4     3     5 ar  
     5     4     6 ar  
     6     5     6 ar  
     7     6    12 1   
     8     7     8 1   
     9     7    11 2   
    10     8     9 2   
    11     8    13 1   
    12     9    10 1   
    13     9    15 1   
    14    10    12 1   
    15    10    14 2   
    16    11    12 1   
    17     1    16 1   
    18     2    17 1   
    19     3    18 1   
    20     4    19 1   
    21     5    20 1   
    22     7    21 1   
    23    13    22 1   
    24    13    23 1   
@<TRIPOS>SUBSTRUCTURE
     1 MOL         1 TEMP              0 ****  ****    0 ROOT
