@<TRIPOS>MOLECULE
N_methylpiperidine
   20    20     1     0     0
SMALL
bcc


@<TRIPOS>ATOM
      1 C1           0.5010    -0.5710    -0.7890 c6         1 MOL      -0.075400
      2 C2           0.8640    -1.9620    -0.2800 c6         1 MOL      -0.111400
      3 C3          -0.3940    -0.6590    -2.0210 c6         1 MOL      -0.111400
      4 C4           1.4280    -2.8360    -1.4030 c6         1 MOL       0.162800
      5 C5           0.2140    -1.5780    -3.0840 c6         1 MOL       0.162800
      6 C6          -0.6070    -3.7540    -2.3700 c3         1 MOL       0.151100
      7 N1           0.5690    -2.9150    -2.5920 n3         1 MOL      -0.720600
      8 H1          -0.0000    -0.0000    -0.0000 hc         1 MOL       0.040200
      9 H2           1.4190    -0.0270    -1.0450 hc         1 MOL       0.040200
     10 H3           1.5980    -1.8790     0.5290 hc         1 MOL       0.043200
     11 H4          -0.0280    -2.4380     0.1470 hc         1 MOL       0.043200
     12 H5          -1.3820    -1.0360    -1.7270 hc         1 MOL       0.043200
     13 H6          -0.5460     0.3420    -2.4390 hc         1 MOL       0.043200
     14 H7           2.4020    -2.4330    -1.7090 h1         1 MOL       0.049700
     15 H8           1.6330    -3.8440    -1.0220 h1         1 MOL       0.049700
     16 H9          -0.4720    -1.6640    -3.9360 h1         1 MOL       0.049700
     17 H10          1.1210    -1.1060    -3.4840 h1         1 MOL       0.049700
     18 H11         -1.0970    -3.9890    -3.3190 h1         1 MOL       0.030367
     19 H12         -1.3230    -3.2370    -1.7240 h1         1 MOL       0.030367
     20 H13         -0.3170    -4.6890    -1.8830 h1         1 MOL       0.030367
@<TRIPOS>BOND
     1     1     2 1   
     2     1     3 1   
     3     2     4 1   
     4     3     5 1   
     5     4     7 1   
     6     5     7 1   
     7     6     7 1   
     8     1     8 1   
     9     1     9 1   
    10     2    10 1   
    11     2    11 1   
    12     3    12 1   
    13     3    13 1   
    14     4    14 1   
    15     4    15 1   
    16     5    16 1   
    17     5    17 1   
    18     6    18 1   
    19     6    19 1   
    20     6    20 1   
@<TRIPOS>SUBSTRUCTURE
     1 MOL         1 TEMP              0 ****  ****    0 ROOT
