@<TRIPOS>MOLECULE
2-chlorodibenzo-p-dioxin
   22    24     1     0     0
SMALL
bcc


@<TRIPOS>ATOM
      1 C1          -1.8580     0.7400     0.8000 ca         1 MOL      -0.126000
      2 C2          -1.0040    -0.2570     0.3260 ca         1 MOL      -0.126000
      3 C3          -3.1490     0.4150     1.2200 ca         1 MOL      -0.180300
      4 C4          -1.4370    -1.5820     0.2690 ca         1 MOL      -0.180300
      5 C5          -6.5290    -2.8210     1.9320 ca         1 MOL      -0.175300
      6 C6          -6.9620    -4.1460     1.8750 ca         1 MOL      -0.122000
      7 C7          -4.8170    -4.8180     0.9820 ca         1 MOL      -0.179300
      8 C8          -3.5800    -0.9100     1.1630 ca         1 MOL       0.210700
      9 C9          -2.7270    -1.9050     0.6890 ca         1 MOL       0.210700
     10 C10         -5.2390    -2.4980     1.5120 ca         1 MOL       0.213700
     11 C11         -4.3860    -3.4940     1.0380 ca         1 MOL       0.221700
     12 C12         -6.1070    -5.1430     1.4010 ca         1 MOL       0.017400
     13 O1          -4.8560    -1.1830     1.5850 os         1 MOL      -0.390800
     14 O2          -3.1090    -3.2200     0.6160 os         1 MOL      -0.389800
     15 Cl1         -6.6470    -6.7760     1.3330 cl         1 MOL      -0.083400
     16 H1          -1.5180     1.7700     0.8430 ha         1 MOL       0.141000
     17 H2           0.0000    -0.0000     0.0000 ha         1 MOL       0.141000
     18 H3          -3.8080     1.1960     1.5870 ha         1 MOL       0.156000
     19 H4          -0.7660    -2.3520    -0.1010 ha         1 MOL       0.156000
     20 H5          -7.1990    -2.0510     2.3020 ha         1 MOL       0.160000
     21 H6          -7.9690    -4.3890     2.2050 ha         1 MOL       0.155000
     22 H7          -4.1460    -5.5900     0.6110 ha         1 MOL       0.169000
@<TRIPOS>BOND
     1     1     2 ar  
     2     1     3 ar  
     3     2     4 ar  
     4     3     8 ar  
     5     4     9 ar  
     6     5     6 ar  
     7     5    10 ar  
     8     6    12 ar  
     9     7    11 ar  
    10     7    12 ar  
    11     8     9 ar  
    12     8    13 1   
    13     9    14 1   
    14    10    11 ar  
    15    10    13 1   
    16    11    14 1   
    17    12    15 1   
    18     1    16 1   
    19     2    17 1   
    20     3    18 1   
    21     4    19 1   
    22     5    20 1   
    23     6    21 1   
    24     7    22 1   
@<TRIPOS>SUBSTRUCTURE
     1 MOL         1 TEMP              0 ****  ****    0 ROOT
