@<TRIPOS>MOLECULE
4_chloroaniline
   14    14     1     0     0
SMALL
bcc


@<TRIPOS>ATOM
      1 C1           0.8180    -0.4390     0.5640 ca         1 MOL      -0.187000
      2 C2           2.9370    -1.5970     0.6200 ca         1 MOL      -0.187000
      3 C3           0.7990    -0.4060     1.9590 ca         1 MOL      -0.085000
      4 C4           2.9180    -1.5650     2.0140 ca         1 MOL      -0.085000
      5 C5           1.8870    -1.0340    -0.1050 ca         1 MOL       0.144600
      6 C6           1.8500    -0.9690     2.6840 ca         1 MOL      -0.028600
      7 N1           1.9050    -1.0670    -1.5150 nv         1 MOL      -0.821200
      8 Cl1          1.8270    -0.9280     4.4040 cl         1 MOL      -0.101400
      9 H1          -0.0060     0.0030     0.0090 ha         1 MOL       0.136000
     10 H2           3.7750    -2.0640     0.1080 ha         1 MOL       0.136000
     11 H3          -0.0400     0.0620     2.4670 ha         1 MOL       0.145000
     12 H4           3.7440    -2.0070     2.5660 ha         1 MOL       0.145000
     13 H5           1.1740    -0.6130    -2.0230 hn         1 MOL       0.392800
     14 H6           2.5950    -1.6220    -1.9810 hn         1 MOL       0.392800
@<TRIPOS>BOND
     1     1     3 ar  
     2     1     5 ar  
     3     2     4 ar  
     4     2     5 ar  
     5     3     6 ar  
     6     4     6 ar  
     7     5     7 1   
     8     6     8 1   
     9     1     9 1   
    10     2    10 1   
    11     3    11 1   
    12     4    12 1   
    13     7    13 1   
    14     7    14 1   
@<TRIPOS>SUBSTRUCTURE
     1 MOL         1 TEMP              0 ****  ****    0 ROOT
