@<TRIPOS>MOLECULE
methyl_octanoate
   29    28     1     0     0
SMALL
bcc


@<TRIPOS>ATOM
      1 C1           3.3840    -8.3150    -1.2420 c          1 MOL       0.629100
      2 C2           0.6180     0.1200    -0.7580 c3         1 MOL      -0.093100
      3 C3           4.2190   -10.5120    -0.9720 c3         1 MOL       0.125700
      4 C4           3.0540    -7.0610    -0.4620 c3         1 MOL      -0.126400
      5 C5           0.9420    -1.1340    -1.5540 c3         1 MOL      -0.080400
      6 C6           2.5620    -5.9150    -1.3450 c3         1 MOL      -0.079400
      7 C7           1.4910    -2.2420    -0.6550 c3         1 MOL      -0.079400
      8 C8           2.3010    -4.6320    -0.5490 c3         1 MOL      -0.078400
      9 C9           1.7830    -3.5130    -1.4540 c3         1 MOL      -0.079400
     10 O1           3.2870    -8.4370    -2.4550 o          1 MOL      -0.541000
     11 O2           3.8350    -9.2700    -0.3750 os         1 MOL      -0.443900
     12 H1           1.5130     0.5130    -0.2650 hc         1 MOL       0.033033
     13 H2          -0.1360    -0.0850     0.0090 hc         1 MOL       0.033033
     14 H3           0.2260     0.8980    -1.4200 hc         1 MOL       0.033033
     15 H4           4.5200   -11.2150    -0.1920 h1         1 MOL       0.050367
     16 H5           5.0470   -10.3440    -1.6650 h1         1 MOL       0.050367
     17 H6           3.3660   -10.9220    -1.5190 h1         1 MOL       0.050367
     18 H7           3.9710    -6.7500     0.0520 hc         1 MOL       0.078200
     19 H8           2.2960    -7.2960     0.2930 hc         1 MOL       0.078200
     20 H9           0.0350    -1.4820    -2.0620 hc         1 MOL       0.039200
     21 H10          1.6740    -0.8880    -2.3310 hc         1 MOL       0.039200
     22 H11          1.6520    -6.2120    -1.8800 hc         1 MOL       0.057700
     23 H12          3.3260    -5.7100    -2.1060 hc         1 MOL       0.057700
     24 H13          2.4090    -1.8960    -0.1650 hc         1 MOL       0.039700
     25 H14          0.7660    -2.4650     0.1370 hc         1 MOL       0.039700
     26 H15          3.2290    -4.3090    -0.0620 hc         1 MOL       0.041200
     27 H16          1.5710    -4.8240     0.2460 hc         1 MOL       0.041200
     28 H17          2.5260    -3.2960    -2.2310 hc         1 MOL       0.042700
     29 H18          0.8700    -3.8450    -1.9630 hc         1 MOL       0.042700
@<TRIPOS>BOND
     1     1     4 1   
     2     1    10 2   
     3     1    11 1   
     4     2     5 1   
     5     3    11 1   
     6     4     6 1   
     7     5     7 1   
     8     6     8 1   
     9     7     9 1   
    10     8     9 1   
    11     2    12 1   
    12     2    13 1   
    13     2    14 1   
    14     3    15 1   
    15     3    16 1   
    16     3    17 1   
    17     4    18 1   
    18     4    19 1   
    19     5    20 1   
    20     5    21 1   
    21     6    22 1   
    22     6    23 1   
    23     7    24 1   
    24     7    25 1   
    25     8    26 1   
    26     8    27 1   
    27     9    28 1   
    28     9    29 1   
@<TRIPOS>SUBSTRUCTURE
     1 MOL         1 TEMP              0 ****  ****    0 ROOT
