@<TRIPOS>MOLECULE
2_fluorophenol
   13    13     1     0     0
SMALL
bcc


@<TRIPOS>ATOM
      1 C1           1.8850    -1.0380    -0.1090 ca         1 MOL      -0.108000
      2 C2           0.8180    -0.4410     0.5630 ca         1 MOL      -0.143000
      3 C3           2.9350    -1.6040     0.6140 ca         1 MOL      -0.138000
      4 C4           0.8010    -0.4100     1.9570 ca         1 MOL      -0.122000
      5 C5           2.9180    -1.5730     2.0080 ca         1 MOL       0.098100
      6 C6           1.8510    -0.9770     2.6800 ca         1 MOL       0.034900
      7 O1           3.9440    -2.1250     2.7120 oh         1 MOL      -0.490100
      8 F1           1.8290    -0.9440     4.0190 f          1 MOL      -0.146900
      9 H1           1.8980    -1.0610    -1.1950 ha         1 MOL       0.139000
     10 H2           0.0000     0.0000    -0.0000 ha         1 MOL       0.140000
     11 H3           3.7630    -2.0670     0.0850 ha         1 MOL       0.156000
     12 H4          -0.0300     0.0540     2.4800 ha         1 MOL       0.150000
     13 H5           3.8460    -1.8850     3.6520 ho         1 MOL       0.430000
@<TRIPOS>BOND
     1     1     2 ar  
     2     1     3 ar  
     3     2     4 ar  
     4     3     5 ar  
     5     4     6 ar  
     6     5     6 ar  
     7     5     7 1   
     8     6     8 1   
     9     1     9 1   
    10     2    10 1   
    11     3    11 1   
    12     4    12 1   
    13     7    13 1   
@<TRIPOS>SUBSTRUCTURE
     1 MOL         1 TEMP              0 ****  ****    0 ROOT
