@<TRIPOS>MOLECULE
pyrrole
   10    10     1     0     0
SMALL
bcc


@<TRIPOS>ATOM
      1 C1           1.4340     0.4030     1.6740 cc         1 MOL      -0.196000
      2 C2           0.2540    -0.0700     1.0480 cc         1 MOL      -0.196000
      3 C3           1.3370     0.1030     3.0140 cd         1 MOL      -0.170300
      4 C4          -0.5280    -0.6450     2.0260 cd         1 MOL      -0.170300
      5 N1           0.1400    -0.5330     3.2170 na         1 MOL      -0.182100
      6 H1           2.2640     0.9070     1.1990 ha         1 MOL       0.150000
      7 H2           0.0010     0.0000    -0.0000 ha         1 MOL       0.150000
      8 H3           2.0110     0.2850     3.8400 h4         1 MOL       0.162000
      9 H4          -1.4980    -1.1210     1.9810 h4         1 MOL       0.162000
     10 H5          -0.1970    -0.8690     4.1090 hn         1 MOL       0.290700
@<TRIPOS>BOND
     1     1     2 1   
     2     1     3 2   
     3     2     4 2   
     4     3     5 1   
     5     4     5 1   
     6     1     6 1   
     7     2     7 1   
     8     3     8 1   
     9     4     9 1   
    10     5    10 1   
@<TRIPOS>SUBSTRUCTURE
     1 MOL         1 TEMP              0 ****  ****    0 ROOT
