@<TRIPOS>MOLECULE
3_chloroaniline
   14    14     1     0     0
SMALL
bcc


@<TRIPOS>ATOM
      1 C1           0.8320    -0.3950     0.5750 ca         1 MOL      -0.084000
      2 C2           1.8990    -1.0140    -0.0770 ca         1 MOL      -0.193000
      3 C3           0.8350    -0.2830     1.9660 ca         1 MOL      -0.169000
      4 C4           2.9710    -1.4090     2.0520 ca         1 MOL      -0.192000
      5 C5           2.9680    -1.5200     0.6620 ca         1 MOL       0.151600
      6 C6           1.9040    -0.7900     2.7040 ca         1 MOL       0.057400
      7 N1           4.0470    -2.1450     0.0020 nv         1 MOL      -0.821200
      8 Cl1          1.9070    -0.6510     4.4200 cl         1 MOL      -0.100400
      9 H1           0.0000     0.0000    -0.0000 ha         1 MOL       0.135000
     10 H2           1.8870    -1.0950    -1.1610 ha         1 MOL       0.135000
     11 H3          -0.0030     0.2020     2.4600 ha         1 MOL       0.147000
     12 H4           3.8070    -1.8040     2.6250 ha         1 MOL       0.146000
     13 H5           3.8600    -2.7660    -0.7590 hn         1 MOL       0.393800
     14 H6           4.9720    -2.0310     0.3640 hn         1 MOL       0.393800
@<TRIPOS>BOND
     1     1     2 ar  
     2     1     3 ar  
     3     2     5 ar  
     4     3     6 ar  
     5     4     5 ar  
     6     4     6 ar  
     7     5     7 1   
     8     6     8 1   
     9     1     9 1   
    10     2    10 1   
    11     3    11 1   
    12     4    12 1   
    13     7    13 1   
    14     7    14 1   
@<TRIPOS>SUBSTRUCTURE
     1 MOL         1 TEMP              0 ****  ****    0 ROOT
