@<TRIPOS>MOLECULE
3_methylbutan_2_one
   16    15     1     0     0
SMALL
bcc


@<TRIPOS>ATOM
      1 C1          -0.0460     2.1350    -0.1210 c          1 MOL       0.567100
      2 C2           0.1910     0.8580     0.6460 c3         1 MOL      -0.203100
      3 C3           1.7490     3.8110     0.3320 c3         1 MOL      -0.087100
      4 C4          -0.6400     4.5640     0.1510 c3         1 MOL      -0.087100
      5 C5           0.2940     3.4410     0.5920 c3         1 MOL      -0.165700
      6 O1          -0.4680     2.1060    -1.2770 o          1 MOL      -0.529100
      7 H1           1.2620     0.7110     0.8030 hc         1 MOL       0.063367
      8 H2          -0.2030     0.0110     0.0770 hc         1 MOL       0.063367
      9 H3          -0.3300     0.9020     1.6050 hc         1 MOL       0.063367
     10 H4           1.9430     3.9300    -0.7400 hc         1 MOL       0.042867
     11 H5           2.0090     4.7500     0.8320 hc         1 MOL       0.042867
     12 H6           2.4270     3.0360     0.7040 hc         1 MOL       0.042867
     13 H7          -1.6870     4.2870     0.3140 hc         1 MOL       0.042867
     14 H8          -0.5200     4.7910    -0.9140 hc         1 MOL       0.042867
     15 H9          -0.4400     5.4800     0.7170 hc         1 MOL       0.042867
     16 H10          0.1430     3.2810     1.6670 hc         1 MOL       0.057700
@<TRIPOS>BOND
     1     1     2 1   
     2     1     5 1   
     3     1     6 2   
     4     3     5 1   
     5     4     5 1   
     6     2     7 1   
     7     2     8 1   
     8     2     9 1   
     9     3    10 1   
    10     3    11 1   
    11     3    12 1   
    12     4    13 1   
    13     4    14 1   
    14     4    15 1   
    15     5    16 1   
@<TRIPOS>SUBSTRUCTURE
     1 MOL         1 TEMP              0 ****  ****    0 ROOT
