@<TRIPOS>MOLECULE
CUP08011_AM1BCC_v1_0
   39    39     1     0     0
SMALL
bcc


@<TRIPOS>ATOM
      1 C1          -0.7970     7.5170     2.7790 ca         1 MOL       0.005000
      2 C2           1.2720     6.3400     2.4620 ca         1 MOL       0.005000
      3 C3           0.5660     7.5480     2.4600 ca         1 MOL      -0.197300
      4 C4          -1.4310     6.2970     3.1000 ca         1 MOL      -0.203200
      5 C5           0.6080     5.1400     2.7840 ca         1 MOL      -0.203200
      6 C6          -0.7640     5.0570     3.1020 ca         1 MOL       0.287600
      7 C7          -2.6260     2.5400    -1.3040 c3         1 MOL      -0.094100
      8 C8          -1.1450     2.1320     5.1770 c3         1 MOL      -0.099100
      9 C9          -3.0750     2.6520     0.1450 c3         1 MOL      -0.078400
     10 C10         -1.9660     3.2210     1.0310 c3         1 MOL      -0.093400
     11 C11         -1.5530     3.5550     4.8190 c3         1 MOL       0.198800
     12 C12         -2.4250     3.3340     2.4880 c3         1 MOL       0.177800
     13 C13          1.2480     8.8460     2.0920 c3         1 MOL       0.697200
     14 N1          -1.3360     3.8040     3.3760 nh         1 MOL      -0.682000
     15 N2          -2.8300     6.3970     3.4580 no         1 MOL       0.322200
     16 N3           1.4150     3.9370     2.7720 no         1 MOL       0.322200
     17 O1          -3.1150     6.2970     4.6580 o          1 MOL      -0.187750
     18 O2          -3.6250     6.6260     2.5380 o          1 MOL      -0.187750
     19 O3           1.6030     3.4000     1.6720 o          1 MOL      -0.187750
     20 O4           1.9230     3.5940     3.8480 o          1 MOL      -0.187750
     21 F1           0.7180     9.9180     2.7400 f          1 MOL      -0.225633
     22 F2           2.5760     8.8470     2.3820 f          1 MOL      -0.225633
     23 F3           1.1470     9.1160     0.7640 f          1 MOL      -0.225633
     24 H1          -1.3720     8.4460     2.7850 ha         1 MOL       0.190000
     25 H2           2.3340     6.3250     2.2150 ha         1 MOL       0.190000
     26 H3          -1.7590     1.8780    -1.3960 hc         1 MOL       0.037700
     27 H4          -3.4330     2.1310    -1.9200 hc         1 MOL       0.037700
     28 H5          -2.3540     3.5210    -1.7060 hc         1 MOL       0.037700
     29 H6          -1.7570     1.3920     4.6520 hc         1 MOL       0.048700
     30 H7          -0.0990     1.9440     4.9170 hc         1 MOL       0.048700
     31 H8          -1.2660     1.9650     6.2520 hc         1 MOL       0.048700
     32 H9          -3.9600     3.2950     0.1980 hc         1 MOL       0.044700
     33 H10         -3.3700     1.6610     0.5070 hc         1 MOL       0.044700
     34 H11         -1.0820     2.5750     0.9730 hc         1 MOL       0.049200
     35 H12         -1.6700     4.2040     0.6470 hc         1 MOL       0.049200
     36 H13         -0.9580     4.2420     5.4340 h1         1 MOL       0.059200
     37 H14         -2.6060     3.7110     5.0810 h1         1 MOL       0.059200
     38 H15         -2.7420     2.3370     2.8180 h1         1 MOL       0.059200
     39 H16         -3.3100     3.9710     2.5680 h1         1 MOL       0.059200
@<TRIPOS>BOND
     1     1     3 ar  
     2     1     4 ar  
     3     2     3 ar  
     4     2     5 ar  
     5     3    13 1   
     6     4     6 ar  
     7     4    15 1   
     8     5     6 ar  
     9     5    16 1   
    10     6    14 1   
    11     7     9 1   
    12     8    11 1   
    13     9    10 1   
    14    10    12 1   
    15    11    14 1   
    16    12    14 1   
    17    13    21 1   
    18    13    22 1   
    19    13    23 1   
    20    15    17 1   
    21    15    18 1   
    22    16    19 1   
    23    16    20 1   
    24     1    24 1   
    25     2    25 1   
    26     7    26 1   
    27     7    27 1   
    28     7    28 1   
    29     8    29 1   
    30     8    30 1   
    31     8    31 1   
    32     9    32 1   
    33     9    33 1   
    34    10    34 1   
    35    10    35 1   
    36    11    36 1   
    37    11    37 1   
    38    12    38 1   
    39    12    39 1   
@<TRIPOS>SUBSTRUCTURE
     1 MOL         1 TEMP              0 ****  ****    0 ROOT
