@<TRIPOS>MOLECULE
chlorofluoromethane
    5     4     1     0     0
SMALL
bcc


@<TRIPOS>ATOM
      1 C1          -0.5230     0.9590     0.0270 c3         1 MOL       0.270300
      2 F1          -1.3060     1.0630    -1.0760 f          1 MOL      -0.214300
      3 Cl1         -1.5250     1.0430     1.4780 cl         1 MOL      -0.203400
      4 H1           0.1940     1.7820     0.0310 h2         1 MOL       0.073700
      5 H2           0.0000     0.0000    -0.0000 h2         1 MOL       0.073700
@<TRIPOS>BOND
     1     1     2 1   
     2     1     3 1   
     3     1     4 1   
     4     1     5 1   
@<TRIPOS>SUBSTRUCTURE
     1 MOL         1 TEMP              0 ****  ****    0 ROOT
