@<TRIPOS>MOLECULE
butanoic_acid
   14    13     1     0     0
SMALL
bcc


@<TRIPOS>ATOM
      1 C1           0.3280     0.2590     3.5150 c          1 MOL       0.634100
      2 C2          -1.2620    -1.9840     0.7850 c3         1 MOL      -0.094100
      3 C3          -0.7520    -0.3450     2.6540 c3         1 MOL      -0.127400
      4 C4          -0.1900    -1.3680     1.6740 c3         1 MOL      -0.080400
      5 O1           1.5220     0.0260     3.3740 o          1 MOL      -0.551000
      6 O2          -0.1580     1.1130     4.4500 oh         1 MOL      -0.612100
      7 H1          -1.7240    -1.2320     0.1390 hc         1 MOL       0.037367
      8 H2          -2.0470    -2.4530     1.3850 hc         1 MOL       0.037367
      9 H3          -0.8210    -2.7520     0.1420 hc         1 MOL       0.037367
     10 H4          -1.3180     0.4380     2.1370 hc         1 MOL       0.079700
     11 H5          -1.4650    -0.8310     3.3310 hc         1 MOL       0.079700
     12 H6           0.2950    -2.1700     2.2410 hc         1 MOL       0.057700
     13 H7           0.5790    -0.9080     1.0430 hc         1 MOL       0.057700
     14 H8           0.5150     1.5420     5.0190 ho         1 MOL       0.443000
@<TRIPOS>BOND
     1     1     3 1   
     2     1     5 2   
     3     1     6 1   
     4     2     4 1   
     5     3     4 1   
     6     2     7 1   
     7     2     8 1   
     8     2     9 1   
     9     3    10 1   
    10     3    11 1   
    11     4    12 1   
    12     4    13 1   
    13     6    14 1   
@<TRIPOS>SUBSTRUCTURE
     1 MOL         1 TEMP              0 ****  ****    0 ROOT
