@<TRIPOS>MOLECULE
cis_12_dimethylcyclohexane
   24    24     1     0     0
SMALL
bcc


@<TRIPOS>ATOM
      1 C1           0.7400     0.0390     0.8070 c6         1 MOL      -0.075400
      2 C2           0.2010     0.8940     1.9490 c6         1 MOL      -0.075400
      3 C3           1.0620    -1.3800     1.2710 c6         1 MOL      -0.072400
      4 C4           1.1340     0.8900     3.1580 c6         1 MOL      -0.072400
      5 C5           2.0170    -1.4140     2.4780 c6         1 MOL      -0.058700
      6 C6           1.4550    -0.5380     3.6250 c6         1 MOL      -0.058700
      7 C7           3.4430    -1.0420     2.0540 c3         1 MOL      -0.088600
      8 C8           2.3660    -0.5070     4.8530 c3         1 MOL      -0.088600
      9 H1           0.0040     0.0030    -0.0040 hc         1 MOL       0.037950
     10 H2           1.6430     0.5060     0.3970 hc         1 MOL       0.037950
     11 H3           0.0530     1.9230     1.6010 hc         1 MOL       0.037950
     12 H4          -0.7830     0.5160     2.2510 hc         1 MOL       0.037950
     13 H5           0.1260    -1.8830     1.5450 hc         1 MOL       0.038450
     14 H6           1.4910    -1.9500     0.4380 hc         1 MOL       0.038450
     15 H7           2.0620     1.4160     2.9020 hc         1 MOL       0.038450
     16 H8           0.6670     1.4530     3.9750 hc         1 MOL       0.038450
     17 H9           2.0640    -2.4500     2.8370 hc         1 MOL       0.042700
     18 H10          0.5110    -0.9950     3.9520 hc         1 MOL       0.042700
     19 H11          3.7250    -0.0690     2.4670 hc         1 MOL       0.033367
     20 H12          4.1580    -1.7880     2.4140 hc         1 MOL       0.033367
     21 H13          3.5190    -0.9890     0.9640 hc         1 MOL       0.033367
     22 H14          3.2150     0.1620     4.6840 hc         1 MOL       0.033367
     23 H15          1.8170    -0.1530     5.7300 hc         1 MOL       0.033367
     24 H16          2.7540    -1.5080     5.0690 hc         1 MOL       0.033367
@<TRIPOS>BOND
     1     1     2 1   
     2     1     3 1   
     3     2     4 1   
     4     3     5 1   
     5     4     6 1   
     6     5     6 1   
     7     5     7 1   
     8     6     8 1   
     9     1     9 1   
    10     1    10 1   
    11     2    11 1   
    12     2    12 1   
    13     3    13 1   
    14     3    14 1   
    15     4    15 1   
    16     4    16 1   
    17     5    17 1   
    18     6    18 1   
    19     7    19 1   
    20     7    20 1   
    21     7    21 1   
    22     8    22 1   
    23     8    23 1   
    24     8    24 1   
@<TRIPOS>SUBSTRUCTURE
     1 MOL         1 TEMP              0 ****  ****    0 ROOT
