@<TRIPOS>MOLECULE
34_dimethylphenol
   19    19     1     0     0
SMALL
bcc


@<TRIPOS>ATOM
      1 C1           0.8320    -0.3950     0.5750 ca         1 MOL      -0.089000
      2 C2           0.8350    -0.2830     1.9660 ca         1 MOL      -0.215000
      3 C3           2.9710    -1.4090     2.0520 ca         1 MOL      -0.155000
      4 C4           1.8990    -1.0140    -0.0770 ca         1 MOL      -0.113300
      5 C5           2.9680    -1.5200     0.6620 ca         1 MOL      -0.043300
      6 C6           1.9040    -0.7900     2.7040 ca         1 MOL       0.122100
      7 C7           1.8740    -1.1210    -1.5660 c3         1 MOL      -0.046800
      8 C8           4.1200    -2.1880    -0.0140 c3         1 MOL      -0.054800
      9 O1           1.9070    -0.6790     4.0610 oh         1 MOL      -0.499100
     10 H1          -0.0050     0.0030     0.0090 ha         1 MOL       0.132000
     11 H2           0.0010     0.2010     2.4670 ha         1 MOL       0.132000
     12 H3           3.8030    -1.8030     2.6310 ha         1 MOL       0.149000
     13 H4           2.0530    -2.1580    -1.8750 hc         1 MOL       0.041700
     14 H5           0.9070    -0.7980    -1.9710 hc         1 MOL       0.041700
     15 H6           2.6410    -0.4840    -2.0230 hc         1 MOL       0.041700
     16 H7           4.8840    -2.4650     0.7220 hc         1 MOL       0.045700
     17 H8           3.8000    -3.0940    -0.5430 hc         1 MOL       0.045700
     18 H9           4.5780    -1.5280    -0.7620 hc         1 MOL       0.045700
     19 H10          1.2270    -0.0330     4.3250 ho         1 MOL       0.418000
@<TRIPOS>BOND
     1     1     2 ar  
     2     1     4 ar  
     3     2     6 ar  
     4     3     5 ar  
     5     3     6 ar  
     6     4     5 ar  
     7     4     7 1   
     8     5     8 1   
     9     6     9 1   
    10     1    10 1   
    11     2    11 1   
    12     3    12 1   
    13     7    13 1   
    14     7    14 1   
    15     7    15 1   
    16     8    16 1   
    17     8    17 1   
    18     8    18 1   
    19     9    19 1   
@<TRIPOS>SUBSTRUCTURE
     1 MOL         1 TEMP              0 ****  ****    0 ROOT
