@<TRIPOS>MOLECULE
22_dimethylbutane
   20    19     1     0     0
SMALL
bcc


@<TRIPOS>ATOM
      1 C1           0.5940     2.3290     0.6860 c3         1 MOL      -0.092100
      2 C2           1.4190     4.1120    -1.6700 c3         1 MOL      -0.085433
      3 C3           1.7280     2.0730    -3.0800 c3         1 MOL      -0.085433
      4 C4           3.1400     2.4150    -1.0370 c3         1 MOL      -0.085433
      5 C5           0.6590     1.9010    -0.7750 c3         1 MOL      -0.070400
      6 C6           1.7370     2.6050    -1.6380 c3         1 MOL      -0.056000
      7 H1           0.3640     3.3930     0.7860 hc         1 MOL       0.032700
      8 H2          -0.1970     1.7730     1.2000 hc         1 MOL       0.032700
      9 H3           1.5320     2.1230     1.2100 hc         1 MOL       0.032700
     10 H4           1.4290     4.5410    -0.6610 hc         1 MOL       0.033478
     11 H5           0.4300     4.2990    -2.1030 hc         1 MOL       0.033478
     12 H6           2.1540     4.6610    -2.2710 hc         1 MOL       0.033478
     13 H7           2.0360     1.0230    -3.1280 hc         1 MOL       0.033478
     14 H8           0.7300     2.1520    -3.5240 hc         1 MOL       0.033478
     15 H9           2.4190     2.6410    -3.7140 hc         1 MOL       0.033478
     16 H10          3.1700     2.7440     0.0080 hc         1 MOL       0.033478
     17 H11          3.8870     2.9960    -1.5900 hc         1 MOL       0.033478
     18 H12          3.4580     1.3680    -1.0700 hc         1 MOL       0.033478
     19 H13         -0.3300     2.0710    -1.2220 hc         1 MOL       0.037700
     20 H14          0.8240     0.8160    -0.8030 hc         1 MOL       0.037700
@<TRIPOS>BOND
     1     1     5 1   
     2     2     6 1   
     3     3     6 1   
     4     4     6 1   
     5     5     6 1   
     6     1     7 1   
     7     1     8 1   
     8     1     9 1   
     9     2    10 1   
    10     2    11 1   
    11     2    12 1   
    12     3    13 1   
    13     3    14 1   
    14     3    15 1   
    15     4    16 1   
    16     4    17 1   
    17     4    18 1   
    18     5    19 1   
    19     5    20 1   
@<TRIPOS>SUBSTRUCTURE
     1 MOL         1 TEMP              0 ****  ****    0 ROOT
