@<TRIPOS>MOLECULE
33_dimethylpentane
   23    22     1     0     0
SMALL
bcc


@<TRIPOS>ATOM
      1 C1          -0.5080    -0.4810     0.8470 c3         1 MOL      -0.092100
      2 C2          -2.4260    -3.7020     0.5510 c3         1 MOL      -0.092100
      3 C3          -2.7380    -0.6450     2.9740 c3         1 MOL      -0.087100
      4 C4          -4.3190    -1.3070     1.1670 c3         1 MOL      -0.087100
      5 C5          -1.9970    -0.5980     0.5480 c3         1 MOL      -0.070400
      6 C6          -2.3930    -2.8310     1.8010 c3         1 MOL      -0.070400
      7 C7          -2.8410    -1.3570     1.6080 c3         1 MOL      -0.052000
      8 H1          -0.3240     0.0580     1.7810 hc         1 MOL       0.033033
      9 H2          -0.0130     0.0760     0.0450 hc         1 MOL       0.033033
     10 H3          -0.0280    -1.4620     0.9090 hc         1 MOL       0.033033
     11 H4          -2.0990    -4.7180     0.8000 hc         1 MOL       0.033033
     12 H5          -3.4350    -3.7760     0.1360 hc         1 MOL       0.033033
     13 H6          -1.7550    -3.3240    -0.2250 hc         1 MOL       0.033033
     14 H7          -3.0040     0.4140     2.8900 hc         1 MOL       0.033700
     15 H8          -1.7260    -0.7060     3.3880 hc         1 MOL       0.033700
     16 H9          -3.4160    -1.1000     3.7060 hc         1 MOL       0.033700
     17 H10         -4.4580    -1.7290     0.1660 hc         1 MOL       0.033700
     18 H11         -4.9590    -1.8650     1.8590 hc         1 MOL       0.033700
     19 H12         -4.6850    -0.2740     1.1360 hc         1 MOL       0.033700
     20 H13         -2.3990     0.4170     0.4300 hc         1 MOL       0.038200
     21 H14         -2.1140    -1.0780    -0.4320 hc         1 MOL       0.038200
     22 H15         -1.3760    -2.8600     2.2120 hc         1 MOL       0.038200
     23 H16         -3.0310    -3.3050     2.5590 hc         1 MOL       0.038200
@<TRIPOS>BOND
     1     1     5 1   
     2     2     6 1   
     3     3     7 1   
     4     4     7 1   
     5     5     7 1   
     6     6     7 1   
     7     1     8 1   
     8     1     9 1   
     9     1    10 1   
    10     2    11 1   
    11     2    12 1   
    12     2    13 1   
    13     3    14 1   
    14     3    15 1   
    15     3    16 1   
    16     4    17 1   
    17     4    18 1   
    18     4    19 1   
    19     5    20 1   
    20     5    21 1   
    21     6    22 1   
    22     6    23 1   
@<TRIPOS>SUBSTRUCTURE
     1 MOL         1 TEMP              0 ****  ****    0 ROOT
