@<TRIPOS>MOLECULE
1_naphthylamine
   20    21     1     0     0
SMALL
bcc


@<TRIPOS>ATOM
      1 C1          -0.5680    -2.0630     0.2280 ca         1 MOL      -0.121000
      2 C2           0.3420    -1.0310     0.0180 ca         1 MOL      -0.139000
      3 C3           3.0390    -5.3110    -0.1010 ca         1 MOL      -0.086000
      4 C4          -0.1300    -3.3870     0.2510 ca         1 MOL      -0.125000
      5 C5           1.6940    -1.3190    -0.1680 ca         1 MOL      -0.110000
      6 C6           1.6870    -5.0230     0.0860 ca         1 MOL      -0.164000
      7 C7           3.9500    -4.2790    -0.3090 ca         1 MOL      -0.213000
      8 C8           1.2280    -3.6950     0.0650 ca         1 MOL      -0.006000
      9 C9           2.1530    -2.6460    -0.1470 ca         1 MOL      -0.065000
     10 C10          3.5110    -2.9550    -0.3330 ca         1 MOL       0.153600
     11 N1           4.4790    -1.9440    -0.5500 nv         1 MOL      -0.818200
     12 H1          -1.6210    -1.8370     0.3730 ha         1 MOL       0.132000
     13 H2          -0.0010    -0.0000     0.0000 ha         1 MOL       0.131000
     14 H3           3.3810    -6.3420    -0.0820 ha         1 MOL       0.130000
     15 H4          -0.8590    -4.1770     0.4160 ha         1 MOL       0.133000
     16 H5           2.3730    -0.4850    -0.3290 ha         1 MOL       0.127000
     17 H6           0.9930    -5.8450     0.2470 ha         1 MOL       0.132000
     18 H7           5.0000    -4.5180    -0.4530 ha         1 MOL       0.130000
     19 H8           5.2800    -1.9090     0.0430 hn         1 MOL       0.389800
     20 H9           4.2920    -1.2350    -1.2260 hn         1 MOL       0.389800
@<TRIPOS>BOND
     1     1     2 ar  
     2     1     4 ar  
     3     2     5 ar  
     4     3     6 ar  
     5     3     7 ar  
     6     4     8 ar  
     7     5     9 ar  
     8     6     8 ar  
     9     7    10 ar  
    10     8     9 ar  
    11     9    10 ar  
    12    10    11 1   
    13     1    12 1   
    14     2    13 1   
    15     3    14 1   
    16     4    15 1   
    17     5    16 1   
    18     6    17 1   
    19     7    18 1   
    20    11    19 1   
    21    11    20 1   
@<TRIPOS>SUBSTRUCTURE
     1 MOL         1 TEMP              0 ****  ****    0 ROOT
