@<TRIPOS>MOLECULE
111_trichloroethane
    8     7     1     0     0
SMALL
bcc


@<TRIPOS>ATOM
      1 C1           1.0240     0.2810    -0.2700 c3         1 MOL      -0.112100
      2 C2           1.2870     1.7560     0.0010 c3         1 MOL       0.263200
      3 Cl1          0.1600     2.7550    -0.9570 cl         1 MOL      -0.123400
      4 Cl2          1.0480     2.1020     1.7370 cl         1 MOL      -0.123400
      5 Cl3          2.9650     2.1640    -0.4530 cl         1 MOL      -0.123400
      6 H1           1.7030    -0.3600     0.3050 hc         1 MOL       0.072700
      7 H2           0.0000    -0.0000     0.0000 hc         1 MOL       0.072700
      8 H3           1.1630     0.0380    -1.3310 hc         1 MOL       0.072700
@<TRIPOS>BOND
     1     1     2 1   
     2     2     3 1   
     3     2     4 1   
     4     2     5 1   
     5     1     6 1   
     6     1     7 1   
     7     1     8 1   
@<TRIPOS>SUBSTRUCTURE
     1 MOL         1 TEMP              0 ****  ****    0 ROOT
