@<TRIPOS>MOLECULE
fluorobenzene
   12    12     1     0     0
SMALL
bcc


@<TRIPOS>ATOM
      1 C1           1.8850    -1.0380    -0.1090 ca         1 MOL      -0.145000
      2 C2           0.8180    -0.4410     0.5630 ca         1 MOL      -0.105000
      3 C3           2.9350    -1.6040     0.6140 ca         1 MOL      -0.105000
      4 C4           0.8010    -0.4100     1.9570 ca         1 MOL      -0.166000
      5 C5           2.9180    -1.5730     2.0080 ca         1 MOL      -0.166000
      6 C6           1.8510    -0.9770     2.6800 ca         1 MOL       0.123900
      7 F1           1.8350    -0.9470     4.0190 f          1 MOL      -0.141900
      8 H1           1.8980    -1.0610    -1.1950 ha         1 MOL       0.136000
      9 H2           0.0000     0.0000    -0.0000 ha         1 MOL       0.137000
     10 H3           3.7660    -2.0680     0.0910 ha         1 MOL       0.137000
     11 H4          -0.0300     0.0540     2.4800 ha         1 MOL       0.148000
     12 H5           3.7360    -2.0140     2.5710 ha         1 MOL       0.148000
@<TRIPOS>BOND
     1     1     2 ar  
     2     1     3 ar  
     3     2     4 ar  
     4     3     5 ar  
     5     4     6 ar  
     6     5     6 ar  
     7     6     7 1   
     8     1     8 1   
     9     2     9 1   
    10     3    10 1   
    11     4    11 1   
    12     5    12 1   
@<TRIPOS>SUBSTRUCTURE
     1 MOL         1 TEMP              0 ****  ****    0 ROOT
