@<TRIPOS>MOLECULE
1_nitrobutane
   16    15     1     0     0
SMALL
bcc


@<TRIPOS>ATOM
      1 C1           1.0480     0.0900    -0.1320 c3         1 MOL      -0.094100
      2 C2           1.5530     1.5130     0.0480 c3         1 MOL      -0.078400
      3 C3           0.8700     2.4770    -0.9210 c3         1 MOL      -0.094400
      4 C4           1.3510     3.9010    -0.7040 c3         1 MOL      -0.077700
      5 N1           0.6060     4.7770    -1.6220 no         1 MOL       0.229300
      6 O1          -0.4510     5.2850    -1.2080 o          1 MOL      -0.211500
      7 O2           1.0900     4.9710    -2.7510 o          1 MOL      -0.211500
      8 H1           1.5500    -0.5820     0.5710 hc         1 MOL       0.040367
      9 H2          -0.0300     0.0300     0.0510 hc         1 MOL       0.040367
     10 H3           1.2450    -0.2710    -1.1470 hc         1 MOL       0.040367
     11 H4           1.3700     1.8310     1.0810 hc         1 MOL       0.044200
     12 H5           2.6370     1.5320    -0.1110 hc         1 MOL       0.044200
     13 H6           1.0720     2.1660    -1.9550 hc         1 MOL       0.070200
     14 H7          -0.2190     2.4240    -0.7870 hc         1 MOL       0.070200
     15 H8           1.1470     4.2640     0.3070 h1         1 MOL       0.094700
     16 H9           2.4100     4.0280    -0.9430 h1         1 MOL       0.094700
@<TRIPOS>BOND
     1     1     2 1   
     2     2     3 1   
     3     3     4 1   
     4     4     5 1   
     5     5     6 1   
     6     5     7 1   
     7     1     8 1   
     8     1     9 1   
     9     1    10 1   
    10     2    11 1   
    11     2    12 1   
    12     3    13 1   
    13     3    14 1   
    14     4    15 1   
    15     4    16 1   
@<TRIPOS>SUBSTRUCTURE
     1 MOL         1 TEMP              0 ****  ****    0 ROOT
