@<TRIPOS>MOLECULE
ethanol
    9     8     1     0     0
SMALL
bcc


@<TRIPOS>ATOM
      1 C1           1.0620    -0.2680    -0.0010 c3         1 MOL      -0.136100
      2 C2           1.9100     0.9130    -0.4220 c3         1 MOL       0.126400
      3 O1           1.5170     1.3240    -1.7230 oh         1 MOL      -0.599800
      4 H1           1.3400    -0.6110     1.0000 hc         1 MOL       0.042367
      5 H2           0.0000     0.0000     0.0000 hc         1 MOL       0.042367
      6 H3           1.1800    -1.0990    -0.7040 hc         1 MOL       0.042367
      7 H4           2.9680     0.6360    -0.4450 h1         1 MOL       0.043200
      8 H5           1.7730     1.7500     0.2690 h1         1 MOL       0.043200
      9 H6           2.1580     0.9420    -2.3450 ho         1 MOL       0.396000
@<TRIPOS>BOND
     1     1     2 1   
     2     2     3 1   
     3     1     4 1   
     4     1     5 1   
     5     1     6 1   
     6     2     7 1   
     7     2     8 1   
     8     3     9 1   
@<TRIPOS>SUBSTRUCTURE
     1 MOL         1 TEMP              0 ****  ****    0 ROOT
