@<TRIPOS>MOLECULE
1,2,3,7-tetrachlorodibenzo-p-dioxin
   22    24     1     0     0
SMALL
bcc


@<TRIPOS>ATOM
      1 C1          -3.1490     0.4150     1.2200 ca         1 MOL      -0.168300
      2 C2          -1.8580     0.7400     0.8000 ca         1 MOL      -0.119000
      3 C3          -1.4370    -1.5820     0.2690 ca         1 MOL      -0.174300
      4 C4          -4.8170    -4.8180     0.9820 ca         1 MOL      -0.173300
      5 C5          -3.5800    -0.9100     1.1630 ca         1 MOL       0.210700
      6 C6          -2.7270    -1.9050     0.6890 ca         1 MOL       0.217700
      7 C7          -4.3860    -3.4940     1.0380 ca         1 MOL       0.229700
      8 C8          -5.2390    -2.4980     1.5120 ca         1 MOL       0.225700
      9 C9          -1.0040    -0.2570     0.3260 ca         1 MOL       0.019400
     10 C10         -6.1070    -5.1430     1.4010 ca         1 MOL       0.025400
     11 C11         -6.5290    -2.8210     1.9320 ca         1 MOL      -0.034900
     12 C12         -6.9620    -4.1460     1.8750 ca         1 MOL       0.014400
     13 O1          -4.8560    -1.1830     1.5850 os         1 MOL      -0.373800
     14 O2          -3.1090    -3.2200     0.6160 os         1 MOL      -0.382800
     15 Cl1          0.5870     0.1500    -0.1900 cl         1 MOL      -0.076400
     16 Cl2         -6.5770    -6.8060     1.3030 cl         1 MOL      -0.049400
     17 Cl3         -7.5660    -1.5560     2.5170 cl         1 MOL      -0.026400
     18 Cl4         -8.5680    -4.5650     2.3960 cl         1 MOL      -0.034400
     19 H1          -3.8080     1.1960     1.5870 ha         1 MOL       0.165000
     20 H2          -1.5310     1.7760     0.8480 ha         1 MOL       0.158000
     21 H3          -0.7760    -2.3630    -0.0990 ha         1 MOL       0.172000
     22 H4          -4.1430    -5.5870     0.6100 ha         1 MOL       0.177000
@<TRIPOS>BOND
     1     1     2 ar  
     2     1     5 ar  
     3     2     9 ar  
     4     3     6 ar  
     5     3     9 ar  
     6     4     7 ar  
     7     4    10 ar  
     8     5     6 ar  
     9     5    13 1   
    10     6    14 1   
    11     7     8 ar  
    12     7    14 1   
    13     8    11 ar  
    14     8    13 1   
    15     9    15 1   
    16    10    12 ar  
    17    10    16 1   
    18    11    12 ar  
    19    11    17 1   
    20    12    18 1   
    21     1    19 1   
    22     2    20 1   
    23     3    21 1   
    24     4    22 1   
@<TRIPOS>SUBSTRUCTURE
     1 MOL         1 TEMP              0 ****  ****    0 ROOT
