@<TRIPOS>MOLECULE
3_chlorophenol
   13    13     1     0     0
SMALL
bcc


@<TRIPOS>ATOM
      1 C1           0.8320    -0.3950     0.5750 ca         1 MOL      -0.089000
      2 C2           1.8990    -1.0140    -0.0770 ca         1 MOL      -0.156000
      3 C3           0.8350    -0.2830     1.9660 ca         1 MOL      -0.160000
      4 C4           2.9710    -1.4090     2.0520 ca         1 MOL      -0.212000
      5 C5           2.9680    -1.5200     0.6620 ca         1 MOL       0.134100
      6 C6           1.9040    -0.7900     2.7040 ca         1 MOL       0.055400
      7 O1           4.0090    -2.1250     0.0260 oh         1 MOL      -0.494100
      8 Cl1          1.9060    -0.6520     4.4190 cl         1 MOL      -0.092400
      9 H1           0.0000     0.0000     0.0000 ha         1 MOL       0.140000
     10 H2           1.8920    -1.0970    -1.1600 ha         1 MOL       0.154000
     11 H3          -0.0030     0.2020     2.4600 ha         1 MOL       0.149000
     12 H4           3.8080    -1.8070     2.6210 ha         1 MOL       0.148000
     13 H5           4.6600    -2.4140     0.6910 ho         1 MOL       0.422000
@<TRIPOS>BOND
     1     1     2 ar  
     2     1     3 ar  
     3     2     5 ar  
     4     3     6 ar  
     5     4     5 ar  
     6     4     6 ar  
     7     5     7 1   
     8     6     8 1   
     9     1     9 1   
    10     2    10 1   
    11     3    11 1   
    12     4    12 1   
    13     7    13 1   
@<TRIPOS>SUBSTRUCTURE
     1 MOL         1 TEMP              0 ****  ****    0 ROOT
