@<TRIPOS>MOLECULE
3_phenylpropanol
   22    22     1     0     0
SMALL
bcc


@<TRIPOS>ATOM
      1 C1           1.8850    -1.0380    -0.1090 ca         1 MOL      -0.131000
      2 C2           0.8180    -0.4410     0.5630 ca         1 MOL      -0.127500
      3 C3           2.9350    -1.6040     0.6140 ca         1 MOL      -0.127500
      4 C4           0.8010    -0.4100     1.9570 ca         1 MOL      -0.127000
      5 C5           2.9180    -1.5730     2.0080 ca         1 MOL      -0.127000
      6 C6           1.8510    -0.9770     2.6800 ca         1 MOL      -0.080300
      7 C7           1.8330    -0.9440     4.1710 c3         1 MOL      -0.033100
      8 C8           2.5090     0.3130     4.7320 c3         1 MOL      -0.117400
      9 C9           2.5330     0.3200     6.2540 c3         1 MOL       0.126400
     10 O1           3.1590     1.5160     6.6990 oh         1 MOL      -0.597800
     11 H1           1.8980    -1.0610    -1.1950 ha         1 MOL       0.131000
     12 H2           0.0000     0.0000    -0.0000 ha         1 MOL       0.131000
     13 H3           3.7650    -2.0680     0.0910 ha         1 MOL       0.131000
     14 H4          -0.0350     0.0570     2.4720 ha         1 MOL       0.131000
     15 H5           3.7400    -2.0170     2.5630 ha         1 MOL       0.131000
     16 H6           2.3300    -1.8410     4.5770 hc         1 MOL       0.049200
     17 H7           0.7950    -0.9980     4.5390 hc         1 MOL       0.049200
     18 H8           1.9950     1.2140     4.3730 hc         1 MOL       0.051700
     19 H9           3.5360     0.3930     4.3540 hc         1 MOL       0.051700
     20 H10          1.5170     0.2860     6.6610 h1         1 MOL       0.044200
     21 H11          3.0990    -0.5340     6.6400 h1         1 MOL       0.044200
     22 H12          3.0580     2.1670     5.9850 ho         1 MOL       0.397000
@<TRIPOS>BOND
     1     1     2 ar  
     2     1     3 ar  
     3     2     4 ar  
     4     3     5 ar  
     5     4     6 ar  
     6     5     6 ar  
     7     6     7 1   
     8     7     8 1   
     9     8     9 1   
    10     9    10 1   
    11     1    11 1   
    12     2    12 1   
    13     3    13 1   
    14     4    14 1   
    15     5    15 1   
    16     7    16 1   
    17     7    17 1   
    18     8    18 1   
    19     8    19 1   
    20     9    20 1   
    21     9    21 1   
    22    10    22 1   
@<TRIPOS>SUBSTRUCTURE
     1 MOL         1 TEMP              0 ****  ****    0 ROOT
