@<TRIPOS>MOLECULE
2_naphthylamine
   20    21     1     0     0
SMALL
bcc


@<TRIPOS>ATOM
      1 C1          -0.5710    -2.0560     0.2750 ca         1 MOL      -0.143000
      2 C2           0.3370    -1.0320     0.0230 ca         1 MOL      -0.118000
      3 C3          -0.1390    -3.3820     0.3040 ca         1 MOL      -0.104000
      4 C4           1.6820    -1.3310    -0.2010 ca         1 MOL      -0.131000
      5 C5           1.6630    -5.0300     0.1060 ca         1 MOL      -0.086000
      6 C6           3.0080    -5.3280    -0.1180 ca         1 MOL      -0.168000
      7 C7           3.4840    -2.9790    -0.3990 ca         1 MOL      -0.200000
      8 C8           1.2100    -3.7010     0.0800 ca         1 MOL      -0.071000
      9 C9           2.1350    -2.6600    -0.1750 ca         1 MOL       0.004000
     10 C10          3.9170    -4.3050    -0.3700 ca         1 MOL       0.139600
     11 N1           5.2760    -4.6090    -0.5940 nv         1 MOL      -0.818200
     12 H1          -1.6170    -1.8220     0.4480 ha         1 MOL       0.130000
     13 H2           0.0000    -0.0000     0.0010 ha         1 MOL       0.130000
     14 H3          -0.8670    -4.1660     0.5010 ha         1 MOL       0.129000
     15 H4           2.3740    -0.5150    -0.3970 ha         1 MOL       0.131000
     16 H5           0.9700    -5.8460     0.3010 ha         1 MOL       0.132000
     17 H6           3.3340    -6.3650    -0.0930 ha         1 MOL       0.132000
     18 H7           4.2040    -2.1860    -0.5960 ha         1 MOL       0.133000
     19 H8           5.5200    -5.5030    -0.9680 hn         1 MOL       0.388800
     20 H9           5.9760    -3.9630    -0.2880 hn         1 MOL       0.388800
@<TRIPOS>BOND
     1     1     2 ar  
     2     1     3 ar  
     3     2     4 ar  
     4     3     8 ar  
     5     4     9 ar  
     6     5     6 ar  
     7     5     8 ar  
     8     6    10 ar  
     9     7     9 ar  
    10     7    10 ar  
    11     8     9 ar  
    12    10    11 1   
    13     1    12 1   
    14     2    13 1   
    15     3    14 1   
    16     4    15 1   
    17     5    16 1   
    18     6    17 1   
    19     7    18 1   
    20    11    19 1   
    21    11    20 1   
@<TRIPOS>SUBSTRUCTURE
     1 MOL         1 TEMP              0 ****  ****    0 ROOT
