@<TRIPOS>MOLECULE
112_trichloro_122_trifluoroethane
    8     7     1     0     0
SMALL
bcc


@<TRIPOS>ATOM
      1 C1           1.3840     0.0330     0.6380 c3         1 MOL       0.491000
      2 C2           0.0000     0.0000     0.0000 c3         1 MOL       0.337100
      3 F1           1.7630    -1.2350     0.9510 f          1 MOL      -0.186300
      4 F2           2.2880     0.4780    -0.2760 f          1 MOL      -0.186300
      5 F3           0.0860    -0.7670    -1.1250 f          1 MOL      -0.161300
      6 Cl1          1.4930     1.0430     2.0950 cl         1 MOL      -0.113400
      7 Cl2         -0.5440     1.6250    -0.4900 cl         1 MOL      -0.090400
      8 Cl3         -1.2090    -0.7470     1.0760 cl         1 MOL      -0.090400
@<TRIPOS>BOND
     1     1     2 1   
     2     1     3 1   
     3     1     4 1   
     4     1     6 1   
     5     2     5 1   
     6     2     7 1   
     7     2     8 1   
@<TRIPOS>SUBSTRUCTURE
     1 MOL         1 TEMP              0 ****  ****    0 ROOT
