@<TRIPOS>MOLECULE
1_bromoheptane
   23    22     1     0     0
SMALL
bcc


@<TRIPOS>ATOM
      1 C1           0.2500    -0.5580     0.9000 c3         1 MOL      -0.093100
      2 C2           1.7280    -0.3980     1.2180 c3         1 MOL      -0.080400
      3 C3           2.6060    -0.9720     0.1070 c3         1 MOL      -0.079400
      4 C4           4.0920    -0.8390     0.4480 c3         1 MOL      -0.078400
      5 C5           4.9700    -1.3800    -0.6830 c3         1 MOL      -0.080400
      6 C6           6.4690    -1.2820    -0.3870 c3         1 MOL      -0.081400
      7 C7           7.3340    -1.8510    -1.4990 c3         1 MOL      -0.009000
      8 Br1          9.2120    -1.7430    -0.9900 br         1 MOL      -0.179400
      9 H1          -0.3590    -0.1440     1.7090 hc         1 MOL       0.033033
     10 H2          -0.0110    -0.0340    -0.0250 hc         1 MOL       0.033033
     11 H3          -0.0130    -1.6140     0.7820 hc         1 MOL       0.033033
     12 H4           1.9480    -0.9020     2.1660 hc         1 MOL       0.038700
     13 H5           1.9520     0.6660     1.3570 hc         1 MOL       0.038700
     14 H6           2.3960    -0.4500    -0.8340 hc         1 MOL       0.039700
     15 H7           2.3580    -2.0300    -0.0470 hc         1 MOL       0.039700
     16 H8           4.2980    -1.3830     1.3760 hc         1 MOL       0.041700
     17 H9           4.3340     0.2160     0.6280 hc         1 MOL       0.041700
     18 H10          4.7650    -0.8120    -1.5990 hc         1 MOL       0.041700
     19 H11          4.7050    -2.4230    -0.8920 hc         1 MOL       0.041700
     20 H12          6.7180    -0.2230    -0.2340 hc         1 MOL       0.055700
     21 H13          6.6900    -1.7890     0.5610 hc         1 MOL       0.055700
     22 H14          7.1330    -2.9090    -1.6860 h1         1 MOL       0.071700
     23 H15          7.2310    -1.2860    -2.4300 h1         1 MOL       0.071700
@<TRIPOS>BOND
     1     1     2 1   
     2     2     3 1   
     3     3     4 1   
     4     4     5 1   
     5     5     6 1   
     6     6     7 1   
     7     7     8 1   
     8     1     9 1   
     9     1    10 1   
    10     1    11 1   
    11     2    12 1   
    12     2    13 1   
    13     3    14 1   
    14     3    15 1   
    15     4    16 1   
    16     4    17 1   
    17     5    18 1   
    18     5    19 1   
    19     6    20 1   
    20     6    21 1   
    21     7    22 1   
    22     7    23 1   
@<TRIPOS>SUBSTRUCTURE
     1 MOL         1 TEMP              0 ****  ****    0 ROOT
