@<TRIPOS>MOLECULE
benzyl_alcohol
   16    16     1     0     0
SMALL
bcc


@<TRIPOS>ATOM
      1 C1           1.8850    -1.0380    -0.1090 ca         1 MOL      -0.127000
      2 C2           0.8180    -0.4410     0.5630 ca         1 MOL      -0.129000
      3 C3           2.9350    -1.6040     0.6140 ca         1 MOL      -0.129000
      4 C4           0.8010    -0.4100     1.9570 ca         1 MOL      -0.121000
      5 C5           2.9180    -1.5730     2.0080 ca         1 MOL      -0.121000
      6 C6           1.8510    -0.9770     2.6800 ca         1 MOL      -0.131300
      7 C7           1.8330    -0.9440     4.1710 c3         1 MOL       0.172700
      8 O1           2.4730     0.2420     4.6250 oh         1 MOL      -0.595800
      9 H1           1.8980    -1.0610    -1.1950 ha         1 MOL       0.132000
     10 H2           0.0000     0.0000    -0.0000 ha         1 MOL       0.132500
     11 H3           3.7650    -2.0680     0.0910 ha         1 MOL       0.132500
     12 H4          -0.0350     0.0570     2.4720 ha         1 MOL       0.137500
     13 H5           3.7400    -2.0170     2.5630 ha         1 MOL       0.137500
     14 H6           0.8050    -0.9590     4.5600 h1         1 MOL       0.054200
     15 H7           2.3570    -1.8120     4.5930 h1         1 MOL       0.054200
     16 H8           2.4690     0.8640     3.8800 ho         1 MOL       0.401000
@<TRIPOS>BOND
     1     1     2 ar  
     2     1     3 ar  
     3     2     4 ar  
     4     3     5 ar  
     5     4     6 ar  
     6     5     6 ar  
     7     6     7 1   
     8     7     8 1   
     9     1     9 1   
    10     2    10 1   
    11     3    11 1   
    12     4    12 1   
    13     5    13 1   
    14     7    14 1   
    15     7    15 1   
    16     8    16 1   
@<TRIPOS>SUBSTRUCTURE
     1 MOL         1 TEMP              0 ****  ****    0 ROOT
