@<TRIPOS>MOLECULE
2_methylpropan_1_ol
   15    14     1     0     0
SMALL
bcc


@<TRIPOS>ATOM
      1 C1           0.9980    -0.3580    -0.2740 c3         1 MOL      -0.089600
      2 C2           1.1580     1.1800    -2.2510 c3         1 MOL      -0.089600
      3 C3           1.9990     1.9490    -0.0130 c3         1 MOL       0.128400
      4 C4           1.8180     0.7470    -0.9440 c3         1 MOL      -0.104700
      5 O1           2.6930     1.5520     1.1620 oh         1 MOL      -0.597800
      6 H1           0.8770    -1.2130    -0.9480 hc         1 MOL       0.037533
      7 H2           0.0000    -0.0000     0.0000 hc         1 MOL       0.037533
      8 H3           1.4900    -0.7200     0.6340 hc         1 MOL       0.037533
      9 H4           1.0540     0.3300    -2.9340 hc         1 MOL       0.037533
     10 H5           1.7590     1.9430    -2.7570 hc         1 MOL       0.037533
     11 H6           0.1600     1.5970    -2.0740 hc         1 MOL       0.037533
     12 H7           2.5870     2.7310    -0.5050 h1         1 MOL       0.045200
     13 H8           1.0320     2.3720     0.2790 h1         1 MOL       0.045200
     14 H9           2.8080     0.3290    -1.1710 hc         1 MOL       0.043700
     15 H10          3.4100     2.1930     1.2940 ho         1 MOL       0.396000
@<TRIPOS>BOND
     1     1     4 1   
     2     2     4 1   
     3     3     4 1   
     4     3     5 1   
     5     1     6 1   
     6     1     7 1   
     7     1     8 1   
     8     2     9 1   
     9     2    10 1   
    10     2    11 1   
    11     3    12 1   
    12     3    13 1   
    13     4    14 1   
    14     5    15 1   
@<TRIPOS>SUBSTRUCTURE
     1 MOL         1 TEMP              0 ****  ****    0 ROOT
