@<TRIPOS>MOLECULE
iodomethane
    5     4     1     0     0
SMALL
bcc


@<TRIPOS>ATOM
      1 C1          -0.6300     0.7330    -0.5140 c3         1 MOL       0.035800
      2 I1          -1.8760     1.7540     0.8510 i          1 MOL      -0.242900
      3 H1           0.0300     1.4280    -1.0420 h1         1 MOL       0.068700
      4 H2           0.0000    -0.0000     0.0000 h1         1 MOL       0.068700
      5 H3          -1.2220     0.1990    -1.2630 h1         1 MOL       0.068700
@<TRIPOS>BOND
     1     1     2 1   
     2     1     3 1   
     3     1     4 1   
     4     1     5 1   
@<TRIPOS>SUBSTRUCTURE
     1 MOL         1 TEMP              0 ****  ****    0 ROOT
