@<TRIPOS>MOLECULE
butyl
   28    28     1     0     0
SMALL
bcc


@<TRIPOS>ATOM
      1 C1          -5.5940    -3.2690    -3.6070 ca         1 MOL      -0.034000
      2 C2          -6.5310    -2.7250    -1.4480 ca         1 MOL      -0.034000
      3 C3          -6.8590    -3.1600    -4.1830 ca         1 MOL      -0.205000
      4 C4          -7.7960    -2.6160    -2.0240 ca         1 MOL      -0.205000
      5 C5          -5.4290    -3.0510    -2.2390 ca         1 MOL      -0.173600
      6 C6          -7.9610    -2.8340    -3.3920 ca         1 MOL       0.158100
      7 C7          -4.0820    -3.1660    -1.6250 c          1 MOL       0.652700
      8 C8          -2.1120    -2.3900     4.1560 c3         1 MOL      -0.092100
      9 C9          -1.8650    -2.7390     2.6970 c3         1 MOL      -0.079400
     10 C10         -3.1550    -2.6880     1.8840 c3         1 MOL      -0.086400
     11 C11         -2.9050    -2.9950     0.4140 c3         1 MOL       0.141400
     12 O1          -3.0790    -3.4480    -2.2610 o          1 MOL      -0.550000
     13 O2          -9.1950    -2.7290    -3.9540 oh         1 MOL      -0.491100
     14 O3          -4.1380    -2.9160    -0.2880 os         1 MOL      -0.443900
     15 H1          -4.7430    -3.5250    -4.2330 ha         1 MOL       0.159000
     16 H2          -6.4140    -2.5530    -0.3810 ha         1 MOL       0.159000
     17 H3          -6.9810    -3.3310    -5.2500 ha         1 MOL       0.149000
     18 H4          -8.6500    -2.3620    -1.4020 ha         1 MOL       0.149000
     19 H5          -2.8410    -3.0730     4.6050 hc         1 MOL       0.035033
     20 H6          -1.1850    -2.4470     4.7360 hc         1 MOL       0.035033
     21 H7          -2.5040    -1.3720     4.2410 hc         1 MOL       0.035033
     22 H8          -1.1330    -2.0390     2.2790 hc         1 MOL       0.042700
     23 H9          -1.4260    -3.7420     2.6370 hc         1 MOL       0.042700
     24 H10         -3.8860    -3.4010     2.2840 hc         1 MOL       0.053700
     25 H11         -3.6220    -1.6990     1.9740 hc         1 MOL       0.053700
     26 H12         -2.2090    -2.2720    -0.0230 h1         1 MOL       0.053200
     27 H13         -2.4970    -4.0030     0.2890 h1         1 MOL       0.053200
     28 H14         -9.8540    -2.4970    -3.2800 ho         1 MOL       0.424000
@<TRIPOS>BOND
     1     1     3 ar  
     2     1     5 ar  
     3     2     4 ar  
     4     2     5 ar  
     5     3     6 ar  
     6     4     6 ar  
     7     5     7 1   
     8     6    13 1   
     9     7    12 2   
    10     7    14 1   
    11     8     9 1   
    12     9    10 1   
    13    10    11 1   
    14    11    14 1   
    15     1    15 1   
    16     2    16 1   
    17     3    17 1   
    18     4    18 1   
    19     8    19 1   
    20     8    20 1   
    21     8    21 1   
    22     9    22 1   
    23     9    23 1   
    24    10    24 1   
    25    10    25 1   
    26    11    26 1   
    27    11    27 1   
    28    13    28 1   
@<TRIPOS>SUBSTRUCTURE
     1 MOL         1 TEMP              0 ****  ****    0 ROOT
