@<TRIPOS>MOLECULE
ethyl_butanoate
   20    19     1     0     0
SMALL
bcc


@<TRIPOS>ATOM
      1 C1           2.6750    -0.7720     3.1240 c          1 MOL       0.631100
      2 C2          -0.3780    -0.6940     0.7530 c3         1 MOL      -0.094100
      3 C3           6.2700    -1.3320     3.5400 c3         1 MOL      -0.100100
      4 C4           1.8850    -0.8880     1.8410 c3         1 MOL      -0.127400
      5 C5           0.4000    -0.6070     2.0560 c3         1 MOL      -0.079400
      6 C6           4.8660    -0.9910     3.9910 c3         1 MOL       0.138400
      7 O1           2.2090    -0.4720     4.2150 o          1 MOL      -0.545000
      8 O2           3.9850    -1.0580     2.8640 os         1 MOL      -0.445900
      9 H1          -1.4380    -0.4880     0.9300 hc         1 MOL       0.037033
     10 H2          -0.0070     0.0340     0.0250 hc         1 MOL       0.037033
     11 H3          -0.2950    -1.6930     0.3130 hc         1 MOL       0.037033
     12 H4           6.9700    -1.2900     4.3790 hc         1 MOL       0.047367
     13 H5           6.3020    -2.3360     3.1030 hc         1 MOL       0.047367
     14 H6           6.6060    -0.6360     2.7640 hc         1 MOL       0.047367
     15 H7           2.2960    -0.1720     1.1210 hc         1 MOL       0.077700
     16 H8           2.0160    -1.9030     1.4490 hc         1 MOL       0.077700
     17 H9          -0.0160    -1.3230     2.7740 hc         1 MOL       0.056700
     18 H10          0.2670     0.3910     2.4910 hc         1 MOL       0.056700
     19 H11          4.8310     0.0210     4.4060 h1         1 MOL       0.051200
     20 H12          4.5230    -1.7020     4.7490 h1         1 MOL       0.051200
@<TRIPOS>BOND
     1     1     4 1   
     2     1     7 2   
     3     1     8 1   
     4     2     5 1   
     5     3     6 1   
     6     4     5 1   
     7     6     8 1   
     8     2     9 1   
     9     2    10 1   
    10     2    11 1   
    11     3    12 1   
    12     3    13 1   
    13     3    14 1   
    14     4    15 1   
    15     4    16 1   
    16     5    17 1   
    17     5    18 1   
    18     6    19 1   
    19     6    20 1   
@<TRIPOS>SUBSTRUCTURE
     1 MOL         1 TEMP              0 ****  ****    0 ROOT
