@<TRIPOS>MOLECULE
bb.xyz
   15    15     1     0     0
SMALL
bcc


@<TRIPOS>ATOM
      1 C1          -0.0210     2.4020    -0.0110 ca         1 MOL      -0.121000
      2 C2           1.3660     2.4100    -0.0060 ca         1 MOL      -0.129000
      3 C3          -0.7040     1.1940    -0.0060 ca         1 MOL      -0.129000
      4 C4           2.0660     1.2140     0.0000 ca         1 MOL      -0.112000
      5 C5           0.0000     0.0000     0.0000 ca         1 MOL      -0.112000
      6 C6           1.3900     0.0000     0.0000 ca         1 MOL      -0.093300
      7 C7           2.1480    -1.2890    -0.0610 c3         1 MOL       0.039300
      8 Br1          2.5640    -1.9960     1.7320 br         1 MOL      -0.173400
      9 H1          -0.5660     3.3290    -0.0200 ha         1 MOL       0.133000
     10 H2           1.9000     3.3430    -0.0110 ha         1 MOL       0.134000
     11 H3          -1.7790     1.1810    -0.0110 ha         1 MOL       0.134000
     12 H4           3.1430     1.2260     0.0020 ha         1 MOL       0.135000
     13 H5          -0.5340    -0.9350     0.0010 ha         1 MOL       0.135000
     14 H6           1.5870    -2.0720    -0.5430 h1         1 MOL       0.078700
     15 H7           3.1040    -1.1800    -0.5440 h1         1 MOL       0.078700
@<TRIPOS>BOND
     1     1     2 ar  
     2     1     3 ar  
     3     2     4 ar  
     4     3     5 ar  
     5     4     6 ar  
     6     5     6 ar  
     7     6     7 1   
     8     7     8 1   
     9     1     9 1   
    10     2    10 1   
    11     3    11 1   
    12     4    12 1   
    13     5    13 1   
    14     7    14 1   
    15     7    15 1   
@<TRIPOS>SUBSTRUCTURE
     1 MOL         1 TEMP              0 ****  ****    0 ROOT
