@<TRIPOS>MOLECULE
1,2,3,4-tetrachloro-5-(3,4-dichlorophenyl)benzene
   22    23     1     0     0
SMALL
bcc


@<TRIPOS>ATOM
      1 C1           1.8850    -1.0360    -0.1120 ca         1 MOL      -0.095000
      2 C2           0.8070    -0.4630     0.5610 ca         1 MOL      -0.119000
      3 C3           2.8780    -1.6520     2.0020 ca         1 MOL      -0.099000
      4 C4           5.1370    -1.4110    -0.3700 ca         1 MOL      -0.102000
      5 C5           2.9210    -1.6310     0.6080 cp         1 MOL      -0.043000
      6 C6           4.0400    -2.2250    -0.0910 cp         1 MOL      -0.019000
      7 C7           0.7640    -0.4840     1.9550 ca         1 MOL       0.026400
      8 C8           1.8000    -1.0790     2.6760 ca         1 MOL       0.014400
      9 C9           6.2410    -1.9340    -1.0430 ca         1 MOL       0.021400
     10 C10          4.0460    -3.5630    -0.4850 ca         1 MOL       0.032400
     11 C11          6.2470    -3.2720    -1.4370 ca         1 MOL       0.024400
     12 C12          5.1500    -4.0870    -1.1580 ca         1 MOL       0.020400
     13 Cl1         -0.5980     0.2460     2.7310 cl         1 MOL      -0.061400
     14 Cl2          1.8050    -1.1320     4.4040 cl         1 MOL      -0.063400
     15 Cl3          7.5640    -0.8610    -1.3530 cl         1 MOL      -0.051400
     16 Cl4          2.6650    -4.5620    -0.1260 cl         1 MOL      -0.046400
     17 Cl5          7.6320    -3.9110    -2.2780 cl         1 MOL      -0.033400
     18 Cl6          5.1560    -5.7590    -1.6490 cl         1 MOL      -0.035400
     19 H1           1.9030    -1.0140    -1.2000 ha         1 MOL       0.151000
     20 H2           0.0080    -0.0050    -0.0170 ha         1 MOL       0.156000
     21 H3           3.6870    -2.1180     2.5630 ha         1 MOL       0.157000
     22 H4           5.1320    -0.3660    -0.0620 ha         1 MOL       0.165000
@<TRIPOS>BOND
     1     1     2 ar  
     2     1     5 ar  
     3     2     7 ar  
     4     3     5 ar  
     5     3     8 ar  
     6     4     6 ar  
     7     4     9 ar  
     8     5     6 1   
     9     6    10 ar  
    10     7     8 ar  
    11     7    13 1   
    12     8    14 1   
    13     9    11 ar  
    14     9    15 1   
    15    10    12 ar  
    16    10    16 1   
    17    11    12 ar  
    18    11    17 1   
    19    12    18 1   
    20     1    19 1   
    21     2    20 1   
    22     3    21 1   
    23     4    22 1   
@<TRIPOS>SUBSTRUCTURE
     1 MOL         1 TEMP              0 ****  ****    0 ROOT
