@<TRIPOS>MOLECULE
sulfolane
   15    15     1     0     0
SMALL
bcc


@<TRIPOS>ATOM
      1 C1           0.3390     0.4830     0.9250 c5         1 MOL      -0.054400
      2 C2          -0.8090     0.5230     1.9320 c5         1 MOL      -0.054400
      3 C3           1.4400    -0.3490     1.5720 c5         1 MOL      -0.314600
      4 C4          -1.0390    -0.9200     2.3680 c5         1 MOL      -0.314600
      5 O1           1.0340    -1.6420     3.8320 o          1 MOL      -0.651800
      6 O2           0.6020    -2.8500     1.6430 o          1 MOL      -0.651800
      7 S1           0.5900    -1.6500     2.4540 s6         1 MOL       1.310000
      8 H1          -0.0010     0.0000     0.0000 hc         1 MOL       0.059700
      9 H2           0.6930     1.4860     0.6700 hc         1 MOL       0.059700
     10 H3          -0.5180     1.1330     2.7960 hc         1 MOL       0.059700
     11 H4          -1.7150     0.9600     1.5020 hc         1 MOL       0.059700
     12 H5           2.1230    -0.7830     0.8390 h1         1 MOL       0.123700
     13 H6           1.9990     0.2410     2.3040 h1         1 MOL       0.123700
     14 H7          -1.5290    -0.9910     3.3410 h1         1 MOL       0.123700
     15 H8          -1.6130    -1.4700     1.6170 h1         1 MOL       0.123700
@<TRIPOS>BOND
     1     1     2 1   
     2     1     3 1   
     3     2     4 1   
     4     3     7 1   
     5     4     7 1   
     6     5     7 2   
     7     6     7 2   
     8     1     8 1   
     9     1     9 1   
    10     2    10 1   
    11     2    11 1   
    12     3    12 1   
    13     3    13 1   
    14     4    14 1   
    15     4    15 1   
@<TRIPOS>SUBSTRUCTURE
     1 MOL         1 TEMP              0 ****  ****    0 ROOT
